Program Version,EnergyPlus, Version 8.8.0-7c3bbe4830, YMD=2018.02.15 21:18
! <Version>, Version ID
 Version, 8.8
! <Timesteps per Hour>, #TimeSteps, Minutes per TimeStep {minutes}
 Timesteps per Hour,  6, 10
! <System Convergence Limits>, Minimum System TimeStep {minutes}, Max HVAC Iterations, Minimum Plant Iterations, Maximum Plant Iterations
 System Convergence Limits, 1, 20, 2, 8
! <Simulation Control>, Do Zone Sizing, Do System Sizing, Do Plant Sizing, Do Design Days, Do Weather Simulation, Do HVAC Sizing Simulation
 Simulation Control, Yes, No, No, Yes, Yes, No
! <Output Reporting Tolerances>, Tolerance for Time Heating Setpoint Not Met, Tolerance for Zone Cooling Setpoint Not Met Time
 Output Reporting Tolerances, 0.200, 0.200, 
! <Site:GroundTemperature:BuildingSurface>,Jan{C},Feb{C},Mar{C},Apr{C},May{C},Jun{C},Jul{C},Aug{C},Sep{C},Oct{C},Nov{C},Dec{C}
 Site:GroundTemperature:BuildingSurface,  18.00,  18.00,  18.00,  18.00,  18.00,  18.00,  18.00,  18.00,  18.00,  18.00,  18.00,  18.00
! <Site:GroundTemperature:FCfactorMethod>,Jan{C},Feb{C},Mar{C},Apr{C},May{C},Jun{C},Jul{C},Aug{C},Sep{C},Oct{C},Nov{C},Dec{C}
 Site:GroundTemperature:FCfactorMethod,   1.79,   3.68,   7.36,  10.85,  17.45,  20.92,  21.88,  20.11,  16.05,  10.98,   5.99,   2.69
! <Site:GroundTemperature:Shallow>,Jan{C},Feb{C},Mar{C},Apr{C},May{C},Jun{C},Jul{C},Aug{C},Sep{C},Oct{C},Nov{C},Dec{C}
 Site:GroundTemperature:Shallow,  13.00,  13.00,  13.00,  13.00,  13.00,  13.00,  13.00,  13.00,  13.00,  13.00,  13.00,  13.00
! <Site:GroundTemperature:Deep>,Jan{C},Feb{C},Mar{C},Apr{C},May{C},Jun{C},Jul{C},Aug{C},Sep{C},Oct{C},Nov{C},Dec{C}
 Site:GroundTemperature:Deep,  16.00,  16.00,  16.00,  16.00,  16.00,  16.00,  16.00,  16.00,  16.00,  16.00,  16.00,  16.00
! <Site:GroundReflectance>,Jan{dimensionless},Feb{dimensionless},Mar{dimensionless},Apr{dimensionless},May{dimensionless},Jun{dimensionless},Jul{dimensionless},Aug{dimensionless},Sep{dimensionless},Oct{dimensionless},Nov{dimensionless},Dec{dimensionless}
 Site:GroundReflectance,  0.20,  0.20,  0.20,  0.20,  0.20,  0.20,  0.20,  0.20,  0.20,  0.20,  0.20,  0.20
! <Site:GroundReflectance:SnowModifier>, Normal, Daylighting {dimensionless}
 Site:GroundReflectance:SnowModifier,   1.000,   1.000
! <Site:GroundReflectance:Snow>,Jan{dimensionless},Feb{dimensionless},Mar{dimensionless},Apr{dimensionless},May{dimensionless},Jun{dimensionless},Jul{dimensionless},Aug{dimensionless},Sep{dimensionless},Oct{dimensionless},Nov{dimensionless},Dec{dimensionless}
 Site:GroundReflectance:Snow,  0.20,  0.20,  0.20,  0.20,  0.20,  0.20,  0.20,  0.20,  0.20,  0.20,  0.20,  0.20
! <Site:GroundReflectance:Snow:Daylighting>,Jan{dimensionless},Feb{dimensionless},Mar{dimensionless},Apr{dimensionless},May{dimensionless},Jun{dimensionless},Jul{dimensionless},Aug{dimensionless},Sep{dimensionless},Oct{dimensionless},Nov{dimensionless},Dec{dimensionless}
 Site:GroundReflectance:Snow:Daylighting,  0.20,  0.20,  0.20,  0.20,  0.20,  0.20,  0.20,  0.20,  0.20,  0.20,  0.20,  0.20
! <Environment:Weather Station>,Wind Sensor Height Above Ground {m},Wind Speed Profile Exponent {},Wind Speed Profile Boundary Layer Thickness {m},Air Temperature Sensor Height Above Ground {m},Wind Speed Modifier Coefficient-Internal,Temperature Modifier Coefficient-Internal
Environment:Weather Station,10.000,0.140,270.000,1.500,1.586,9.750E-003
! <Site:Location>, Location Name, Latitude {N+/S- Deg}, Longitude {E+/W- Deg},  Time Zone Number {GMT+/-}, Elevation {m},  Standard Pressure at Elevation {Pa}, Standard RhoAir at Elevation
Site:Location,Piacenza - ITA IGDG WMO#=160840,44.92,9.73,1.00,134.00,99726,1.1853
! <Building Information>, Building Name,North Axis {deg},Terrain,  Loads Convergence Tolerance Value,Temperature Convergence Tolerance Value,  Solar Distribution,Maximum Number of Warmup Days,Minimum Number of Warmup Days
 Building Information,Building 1,0.000,Suburbs,4.00000E-002,0.40000,FullExterior,25,6
! <Inside Convection Algorithm>, Algorithm {Simple | TARP | CeilingDiffuser | AdaptiveConvectionAlgorithm}
Inside Convection Algorithm,TARP
! <Outside Convection Algorithm>, Algorithm {SimpleCombined | TARP | MoWitt | DOE-2 | AdaptiveConvectionAlgorithm}
Outside Convection Algorithm,DOE-2
! <Sky Radiance Distribution>, Value {Anisotropic}
Sky Radiance Distribution,Anisotropic
! <Zone Air Solution Algorithm>, Value {ThirdOrderBackwardDifference | AnalyticalSolution | EulerMethod}
 Zone Air Solution Algorithm, ThirdOrderBackwardDifference
! <Zone Air Carbon Dioxide Balance Simulation>, Simulation {Yes/No}, Carbon Dioxide Concentration
 Zone Air Carbon Dioxide Balance Simulation, No,N/A
! <Zone Air Generic Contaminant Balance Simulation>, Simulation {Yes/No}, Generic Contaminant Concentration
 Zone Air Generic Contaminant Balance Simulation, No,N/A
! <Zone Air Mass Flow Balance Simulation>, Enforce Mass Balance, Adjust Zone Mixing, Adjust Zone Infiltration {AddInfiltration | AdjustInfiltration | None}, Infiltration Zones {MixingSourceZonesOnly | AllZones}
 Zone Air Mass Flow Balance Simulation, No,N/A,N/A,N/A
! <HVACSystemRootFindingAlgorithm>, Value {RegulaFalsi | Bisection | BisectionThenRegulaFalsi | RegulaFalsiThenBisection}
 HVACSystemRootFindingAlgorithm, RegulaFalsi
! <Environment:Site Atmospheric Variation>,Wind Speed Profile Exponent {},Wind Speed Profile Boundary Layer Thickness {m},Air Temperature Gradient Coefficient {K/m}
Environment:Site Atmospheric Variation,0.220,370.000,6.500000E-003
! <Surface Geometry>,Starting Corner,Vertex Input Direction,Coordinate System,Daylight Reference Point Coordinate System,Rectangular (Simple) Surface Coordinate System
 Surface Geometry,UpperLeftCorner,Counterclockwise,RelativeCoordinateSystem,RelativeCoordinateSystem,RelativeToZoneOrigin
! <Surface Heat Transfer Algorithm>, Value {CTF - ConductionTransferFunction | EMPD - MoisturePenetrationDepthConductionTransferFunction | CondFD - ConductionFiniteDifference | HAMT - CombinedHeatAndMoistureFiniteElement} - Description,Inside Surface Max Temperature Limit{C}, Surface Convection Coefficient Lower Limit {W/m2-K}, Surface Convection Coefficient Upper Limit {W/m2-K}
Surface Heat Transfer Algorithm, CTF - ConductionTransferFunction,200,0.10,1000.0
! <Shading Summary>, Number of Fixed Detached Shades, Number of Building Detached Shades, Number of Attached Shades
 Shading Summary,0,0,70
! <Zone Summary>, Number of Zones, Number of Zone Surfaces, Number of SubSurfaces
 Zone Summary,16,211,45
! <Zone Information>,Zone Name,North Axis {deg},Origin X-Coordinate {m},Origin Y-Coordinate {m},Origin Z-Coordinate {m},Centroid X-Coordinate {m},Centroid Y-Coordinate {m},Centroid Z-Coordinate {m},Type,Zone Multiplier,Zone List Multiplier,Minimum X {m},Maximum X {m},Minimum Y {m},Maximum Y {m},Minimum Z {m},Maximum Z {m},Ceiling Height {m},Volume {m3},Zone Inside Convection Algorithm {Simple-Detailed-CeilingDiffuser-TrombeWall},Zone Outside Convection Algorithm {Simple-Detailed-Tarp-MoWitt-DOE-2-BLAST}, Floor Area {m2},Exterior Gross Wall Area {m2},Exterior Net Wall Area {m2},Exterior Window Area {m2}, Number of Surfaces, Number of SubSurfaces, Number of Shading SubSurfaces,  Part of Total Building Area
 Zone Information, THERMAL ZONE 1,0.0,3.28,3.22,0.00,23.28,18.92,2.00,1,1,1,3.28,43.28,3.22,33.22,0.00,4.00,4.00,4200.00,TARP,DOE-2,1050.00,520.00,348.40,171.60,20,8,12,Yes
 Zone Information, THERMAL ZONE 10,0.0,18.28,13.22,12.00,23.28,10.72,14.00,1,1,1,18.28,28.28,3.22,18.22,12.00,16.00,4.00,600.00,TARP,DOE-2,150.00,40.00,26.80,13.20,8,1,2,Yes
 Zone Information, THERMAL ZONE 11,0.0,28.28,13.22,12.00,35.78,8.22,14.00,1,1,1,28.28,43.28,3.22,13.22,12.00,16.00,4.00,600.00,TARP,DOE-2,150.00,100.00,67.00,33.00,6,2,4,Yes
 Zone Information, THERMAL ZONE 12,0.0,18.28,3.22,12.00,10.78,8.22,14.00,1,1,1,3.28,18.28,3.22,13.22,12.00,16.00,4.00,600.00,TARP,DOE-2,150.00,100.00,67.00,33.00,6,2,4,Yes
 Zone Information, THERMAL ZONE 13,0.0,3.28,13.22,12.00,23.28,23.22,14.00,1,1,1,3.28,43.28,13.22,33.22,12.00,16.00,4.00,2400.00,TARP,DOE-2,600.00,280.00,187.60,92.40,22,6,8,Yes
 Zone Information, THERMAL ZONE 14,0.0,18.28,18.22,12.00,23.28,25.72,14.00,1,1,1,18.28,28.28,18.22,33.22,12.00,16.00,4.00,600.00,TARP,DOE-2,150.00,40.00,26.80,13.20,8,1,0,Yes
 Zone Information, THERMAL ZONE 15,0.0,18.28,3.22,16.00,23.28,10.72,18.00,1,1,1,18.28,28.28,3.22,18.22,16.00,20.00,4.00,600.00,TARP,DOE-2,150.00,40.00,26.80,13.20,6,1,2,Yes
 Zone Information, THERMAL ZONE 16,0.0,18.28,3.22,16.00,23.28,15.27,18.00,1,1,1,3.28,43.28,3.22,33.22,16.00,20.00,4.00,4200.00,TARP,DOE-2,1050.00,520.00,348.40,171.60,10,5,8,Yes
 Zone Information, THERMAL ZONE 2,0.0,28.28,3.22,0.00,23.28,10.72,2.00,1,1,1,18.28,28.28,3.22,18.22,0.00,4.00,4.00,600.00,TARP,DOE-2,150.00,40.00,26.80,13.20,7,1,2,Yes
 Zone Information, THERMAL ZONE 3,0.0,43.28,3.22,4.00,23.28,15.27,6.00,1,1,1,3.28,43.28,3.22,33.22,4.00,8.00,4.00,4200.00,TARP,DOE-2,1050.00,520.00,348.40,171.60,10,5,8,Yes
 Zone Information, THERMAL ZONE 4,0.0,18.28,3.22,4.00,23.28,10.72,6.00,1,1,1,18.28,28.28,3.22,18.22,4.00,8.00,4.00,600.00,TARP,DOE-2,150.00,40.00,26.80,13.20,6,1,2,Yes
 Zone Information, THERMAL ZONE 5,0.0,18.28,13.22,8.00,23.28,10.72,10.00,1,1,1,18.28,28.28,3.22,18.22,8.00,12.00,4.00,600.00,TARP,DOE-2,150.00,40.00,26.80,13.20,8,1,2,Yes
 Zone Information, THERMAL ZONE 6,0.0,28.28,13.22,8.00,35.78,8.22,10.00,1,1,1,28.28,43.28,3.22,13.22,8.00,12.00,4.00,600.00,TARP,DOE-2,150.00,100.00,67.00,33.00,6,2,4,Yes
 Zone Information, THERMAL ZONE 7,0.0,18.28,3.22,8.00,10.78,8.22,10.00,1,1,1,3.28,18.28,3.22,13.22,8.00,12.00,4.00,600.00,TARP,DOE-2,150.00,100.00,67.00,33.00,6,2,4,Yes
 Zone Information, THERMAL ZONE 8,0.0,3.28,13.22,8.00,23.28,23.22,10.00,1,1,1,3.28,43.28,13.22,33.22,8.00,12.00,4.00,2400.00,TARP,DOE-2,600.00,280.00,187.60,92.40,22,6,8,Yes
 Zone Information, THERMAL ZONE 9,0.0,18.28,18.22,8.00,23.28,25.72,10.00,1,1,1,18.28,28.28,18.22,33.22,8.00,12.00,4.00,600.00,TARP,DOE-2,150.00,40.00,26.80,13.20,8,1,0,Yes
! <Zone Internal Gains Nominal>,Zone Name, Floor Area {m2},# Occupants,Area per Occupant {m2/person},Occupant per Area {person/m2},Interior Lighting {W/m2},Electric Load {W/m2},Gas Load {W/m2},Other Load {W/m2},Hot Water Eq {W/m2},Steam Equipment {W/m2},Sum Loads per Area {W/m2},Outdoor Controlled Baseboard Heat
 Zone Internal Gains Nominal, THERMAL ZONE 1,1050.00,0.0,N/A,0.000,7.750,0.000,0.000,0.000,0.000,0.000,7.750,No
 Zone Internal Gains Nominal, THERMAL ZONE 10,150.00,1.6,92.903,1.076E-002,4.844,1.722,0.000,0.000,0.000,0.000,6.566,No
 Zone Internal Gains Nominal, THERMAL ZONE 11,150.00,16.1,9.290,0.108,10.656,30.031,0.000,0.000,0.000,0.000,40.688,No
 Zone Internal Gains Nominal, THERMAL ZONE 12,150.00,0.0,N/A,0.000,7.750,0.000,0.000,0.000,0.000,0.000,7.750,No
 Zone Internal Gains Nominal, THERMAL ZONE 13,600.00,33.9,17.696,5.651E-002,10.656,7.642,0.000,0.000,0.000,0.000,18.299,No
 Zone Internal Gains Nominal, THERMAL ZONE 14,150.00,80.7,1.858,0.538,11.625,48.007,0.000,0.000,0.000,0.000,59.632,No
 Zone Internal Gains Nominal, THERMAL ZONE 15,150.00,1.6,92.903,1.076E-002,4.844,1.722,0.000,0.000,0.000,0.000,6.566,No
 Zone Internal Gains Nominal, THERMAL ZONE 16,1050.00,565.1,1.858,0.538,12.594,3.983,0.000,0.000,0.000,0.000,16.576,No
 Zone Internal Gains Nominal, THERMAL ZONE 2,150.00,16.1,9.290,0.108,12.594,0.753,0.000,0.000,0.000,0.000,13.347,No
 Zone Internal Gains Nominal, THERMAL ZONE 3,1050.00,11.3,92.903,1.076E-002,4.844,41.441,0.000,0.000,0.000,0.000,46.285,No
 Zone Internal Gains Nominal, THERMAL ZONE 4,150.00,1.6,92.903,1.076E-002,4.844,1.722,0.000,0.000,0.000,0.000,6.566,No
 Zone Internal Gains Nominal, THERMAL ZONE 5,150.00,1.6,92.903,1.076E-002,4.844,1.722,0.000,0.000,0.000,0.000,6.566,No
 Zone Internal Gains Nominal, THERMAL ZONE 6,150.00,16.1,9.290,0.108,10.656,30.031,0.000,0.000,0.000,0.000,40.688,No
 Zone Internal Gains Nominal, THERMAL ZONE 7,150.00,0.0,N/A,0.000,7.750,0.000,0.000,0.000,0.000,0.000,7.750,No
 Zone Internal Gains Nominal, THERMAL ZONE 8,600.00,33.9,17.696,5.651E-002,10.656,7.642,0.000,0.000,0.000,0.000,18.299,No
 Zone Internal Gains Nominal, THERMAL ZONE 9,150.00,80.7,1.858,0.538,11.625,48.007,0.000,0.000,0.000,0.000,59.632,No
! <People Internal Gains Nominal>,Name,Schedule Name,Zone Name,Zone Floor Area {m2},# Zone Occupants,Number of People {},People/Floor Area {person/m2},Floor Area per person {m2/person},Fraction Radiant,Fraction Convected,Sensible Fraction Calculation,Activity level,ASHRAE 55 Warnings,Carbon Dioxide Generation Rate,Nominal Minimum Number of People,Nominal Maximum Number of People
 People Internal Gains Nominal, THERMAL ZONE 14 189.1-2009 - OFFICE - BREAKROOM - CZ1-3 PEOPLE,OFFICE MISC OCC,THERMAL ZONE 14,150.00,80.7,80.7,0.538,1.858,0.300,0.700,AutoCalculate,OFFICE ACTIVITY,No,3.8200E-008,0,81
 People Internal Gains Nominal, THERMAL ZONE 9 189.1-2009 - OFFICE - BREAKROOM - CZ1-3 PEOPLE,OFFICE MISC OCC,THERMAL ZONE 9,150.00,80.7,80.7,0.538,1.858,0.300,0.700,AutoCalculate,OFFICE ACTIVITY,No,3.8200E-008,0,81
 People Internal Gains Nominal, THERMAL ZONE 16 189.1-2009 - OFFICE - CONFERENCE - CZ1-3 PEOPLE,OFFICE MISC OCC,THERMAL ZONE 16,1050.00,565.1,565.1,0.538,1.858,0.300,0.700,AutoCalculate,OFFICE ACTIVITY,No,3.8200E-008,0,565
 People Internal Gains Nominal, THERMAL ZONE 10 189.1-2009 - OFFICE - CORRIDOR - CZ1-3 PEOPLE,OFFICE WORK OCC,THERMAL ZONE 10,150.00,1.6,1.6,1.076E-002,92.903,0.300,0.700,AutoCalculate,OFFICE ACTIVITY,No,3.8200E-008,0,2
 People Internal Gains Nominal, THERMAL ZONE 15 189.1-2009 - OFFICE - CORRIDOR - CZ1-3 PEOPLE,OFFICE WORK OCC,THERMAL ZONE 15,150.00,1.6,1.6,1.076E-002,92.903,0.300,0.700,AutoCalculate,OFFICE ACTIVITY,No,3.8200E-008,0,2
 People Internal Gains Nominal, THERMAL ZONE 4 189.1-2009 - OFFICE - CORRIDOR - CZ1-3 PEOPLE,OFFICE WORK OCC,THERMAL ZONE 4,150.00,1.6,1.6,1.076E-002,92.903,0.300,0.700,AutoCalculate,OFFICE ACTIVITY,No,3.8200E-008,0,2
 People Internal Gains Nominal, THERMAL ZONE 5 189.1-2009 - OFFICE - CORRIDOR - CZ1-3 PEOPLE,OFFICE WORK OCC,THERMAL ZONE 5,150.00,1.6,1.6,1.076E-002,92.903,0.300,0.700,AutoCalculate,OFFICE ACTIVITY,No,3.8200E-008,0,2
 People Internal Gains Nominal, THERMAL ZONE 2 189.1-2009 - OFFICE - LOBBY - CZ1-3 PEOPLE,OFFICE MISC OCC,THERMAL ZONE 2,150.00,16.1,16.1,0.108,9.290,0.300,0.700,AutoCalculate,OFFICE ACTIVITY,No,3.8200E-008,0,16
 People Internal Gains Nominal, THERMAL ZONE 13 189.1-2009 - OFFICE - OPENOFFICE - CZ1-3 PEOPLE,OFFICE WORK OCC,THERMAL ZONE 13,600.00,33.9,33.9,5.651E-002,17.696,0.300,0.700,AutoCalculate,OFFICE ACTIVITY,No,3.8200E-008,0,34
 People Internal Gains Nominal, THERMAL ZONE 8 189.1-2009 - OFFICE - OPENOFFICE - CZ1-3 PEOPLE,OFFICE WORK OCC,THERMAL ZONE 8,600.00,33.9,33.9,5.651E-002,17.696,0.300,0.700,AutoCalculate,OFFICE ACTIVITY,No,3.8200E-008,0,34
 People Internal Gains Nominal, THERMAL ZONE 11 189.1-2009 - OFFICE - PRINTROOM - CZ1-3 PEOPLE,OFFICE MISC OCC,THERMAL ZONE 11,150.00,16.1,16.1,0.108,9.290,0.300,0.700,AutoCalculate,OFFICE ACTIVITY,No,3.8200E-008,0,16
 People Internal Gains Nominal, THERMAL ZONE 6 189.1-2009 - OFFICE - PRINTROOM - CZ1-3 PEOPLE,OFFICE MISC OCC,THERMAL ZONE 6,150.00,16.1,16.1,0.108,9.290,0.300,0.700,AutoCalculate,OFFICE ACTIVITY,No,3.8200E-008,0,16
 People Internal Gains Nominal, THERMAL ZONE 3 189.1-2009 - OFFICE - VENDING - CZ1-3 PEOPLE,OFFICE MISC OCC,THERMAL ZONE 3,1050.00,11.3,11.3,1.076E-002,92.903,0.300,0.700,AutoCalculate,OFFICE ACTIVITY,No,3.8200E-008,0,11
! <Lights Internal Gains Nominal>,Name,Schedule Name,Zone Name,Zone Floor Area {m2},# Zone Occupants,Lighting Level {W},Lights/Floor Area {W/m2},Lights per person {W/person},Fraction Return Air,Fraction Radiant,Fraction Short Wave,Fraction Convected,Fraction Replaceable,End-Use Category,Nominal Minimum Lighting Level {W},Nominal Maximum Lighting Level {W}
 Lights Internal Gains Nominal, THERMAL ZONE 14 189.1-2009 - OFFICE - BREAKROOM - CZ1-3 LIGHTS,OFFICE BLDG LIGHT,THERMAL ZONE 14,150.00,80.7,1743.753,11.625,21.600,0.000,0.000,0.000,1.000,1.000,General,0.000,1743.753
 Lights Internal Gains Nominal, THERMAL ZONE 9 189.1-2009 - OFFICE - BREAKROOM - CZ1-3 LIGHTS,OFFICE BLDG LIGHT,THERMAL ZONE 9,150.00,80.7,1743.753,11.625,21.600,0.000,0.000,0.000,1.000,1.000,General,0.000,1743.753
 Lights Internal Gains Nominal, THERMAL ZONE 16 189.1-2009 - OFFICE - CONFERENCE - CZ1-3 LIGHTS,OFFICE BLDG LIGHT,THERMAL ZONE 16,1050.00,565.1,13223.464,12.594,23.400,0.000,0.000,0.000,1.000,1.000,General,0.000,13223.464
 Lights Internal Gains Nominal, THERMAL ZONE 10 189.1-2009 - OFFICE - CORRIDOR - CZ1-3 LIGHTS,OFFICE BLDG LIGHT,THERMAL ZONE 10,150.00,1.6,726.564,4.844,450.000,0.000,0.000,0.000,1.000,1.000,General,0.000,726.564
 Lights Internal Gains Nominal, THERMAL ZONE 15 189.1-2009 - OFFICE - CORRIDOR - CZ1-3 LIGHTS,OFFICE BLDG LIGHT,THERMAL ZONE 15,150.00,1.6,726.564,4.844,450.000,0.000,0.000,0.000,1.000,1.000,General,0.000,726.564
 Lights Internal Gains Nominal, THERMAL ZONE 4 189.1-2009 - OFFICE - CORRIDOR - CZ1-3 LIGHTS,OFFICE BLDG LIGHT,THERMAL ZONE 4,150.00,1.6,726.564,4.844,450.000,0.000,0.000,0.000,1.000,1.000,General,0.000,726.564
 Lights Internal Gains Nominal, THERMAL ZONE 5 189.1-2009 - OFFICE - CORRIDOR - CZ1-3 LIGHTS,OFFICE BLDG LIGHT,THERMAL ZONE 5,150.00,1.6,726.564,4.844,450.000,0.000,0.000,0.000,1.000,1.000,General,0.000,726.564
 Lights Internal Gains Nominal, THERMAL ZONE 2 189.1-2009 - OFFICE - LOBBY - CZ1-3 LIGHTS,OFFICE BLDG LIGHT,THERMAL ZONE 2,150.00,16.1,1889.066,12.594,117.000,0.000,0.000,0.000,1.000,1.000,General,0.000,1889.066
 Lights Internal Gains Nominal, THERMAL ZONE 13 189.1-2009 - OFFICE - OPENOFFICE - CZ1-3 LIGHTS,OFFICE BLDG LIGHT,THERMAL ZONE 13,600.00,33.9,6393.763,10.656,188.571,0.000,0.000,0.000,1.000,1.000,General,0.000,6393.763
 Lights Internal Gains Nominal, THERMAL ZONE 8 189.1-2009 - OFFICE - OPENOFFICE - CZ1-3 LIGHTS,OFFICE BLDG LIGHT,THERMAL ZONE 8,600.00,33.9,6393.763,10.656,188.571,0.000,0.000,0.000,1.000,1.000,General,0.000,6393.763
 Lights Internal Gains Nominal, THERMAL ZONE 11 189.1-2009 - OFFICE - PRINTROOM - CZ1-3 LIGHTS,OFFICE BLDG LIGHT,THERMAL ZONE 11,150.00,16.1,1598.441,10.656,99.000,0.000,0.000,0.000,1.000,1.000,General,0.000,1598.441
 Lights Internal Gains Nominal, THERMAL ZONE 6 189.1-2009 - OFFICE - PRINTROOM - CZ1-3 LIGHTS,OFFICE BLDG LIGHT,THERMAL ZONE 6,150.00,16.1,1598.441,10.656,99.000,0.000,0.000,0.000,1.000,1.000,General,0.000,1598.441
 Lights Internal Gains Nominal, THERMAL ZONE 1 189.1-2009 - OFFICE - STORAGE - CZ1-3 LIGHTS,OFFICE BLDG LIGHT,THERMAL ZONE 1,1050.00,0.0,8137.516,7.750,N/A,0.000,0.000,0.000,1.000,1.000,General,0.000,8137.516
 Lights Internal Gains Nominal, THERMAL ZONE 12 189.1-2009 - OFFICE - STORAGE - CZ1-3 LIGHTS,OFFICE BLDG LIGHT,THERMAL ZONE 12,150.00,0.0,1162.502,7.750,N/A,0.000,0.000,0.000,1.000,1.000,General,0.000,1162.502
 Lights Internal Gains Nominal, THERMAL ZONE 7 189.1-2009 - OFFICE - STORAGE - CZ1-3 LIGHTS,OFFICE BLDG LIGHT,THERMAL ZONE 7,150.00,0.0,1162.502,7.750,N/A,0.000,0.000,0.000,1.000,1.000,General,0.000,1162.502
 Lights Internal Gains Nominal, THERMAL ZONE 3 189.1-2009 - OFFICE - VENDING - CZ1-3 LIGHTS,OFFICE BLDG LIGHT,THERMAL ZONE 3,1050.00,11.3,5085.948,4.844,450.000,0.000,0.000,0.000,1.000,1.000,General,0.000,5085.948
! <ElectricEquipment Internal Gains Nominal>,Name,Schedule Name,Zone Name,Zone Floor Area {m2},# Zone Occupants,Equipment Level {W},Equipment/Floor Area {W/m2},Equipment per person {W/person},Fraction Latent,Fraction Radiant,Fraction Lost,Fraction Convected,End-Use SubCategory,Nominal Minimum Equipment Level {W},Nominal Maximum Equipment Level {W}
 ElectricEquipment Internal Gains Nominal, THERMAL ZONE 14 189.1-2009 - OFFICE - BREAKROOM - CZ1-3 ELECTRIC EQUIPMENT,OFFICE BLDG EQUIP,THERMAL ZONE 14,150.00,80.7,7201.056,48.007,89.200,0.000,0.000,0.000,1.000,General,0.000,7201.056
 ElectricEquipment Internal Gains Nominal, THERMAL ZONE 9 189.1-2009 - OFFICE - BREAKROOM - CZ1-3 ELECTRIC EQUIPMENT,OFFICE BLDG EQUIP,THERMAL ZONE 9,150.00,80.7,7201.056,48.007,89.200,0.000,0.000,0.000,1.000,General,0.000,7201.056
 ElectricEquipment Internal Gains Nominal, THERMAL ZONE 16 189.1-2009 - OFFICE - CONFERENCE - CZ1-3 ELECTRIC EQUIPMENT,OFFICE BLDG EQUIP,THERMAL ZONE 16,1050.00,565.1,4181.779,3.983,7.400,0.000,0.000,0.000,1.000,General,0.000,4181.779
 ElectricEquipment Internal Gains Nominal, THERMAL ZONE 10 189.1-2009 - OFFICE - CORRIDOR - CZ1-3 ELECTRIC EQUIPMENT,OFFICE BLDG EQUIP,THERMAL ZONE 10,150.00,1.6,258.334,1.722,160.000,0.000,0.000,0.000,1.000,General,0.000,258.334
 ElectricEquipment Internal Gains Nominal, THERMAL ZONE 15 189.1-2009 - OFFICE - CORRIDOR - CZ1-3 ELECTRIC EQUIPMENT,OFFICE BLDG EQUIP,THERMAL ZONE 15,150.00,1.6,258.334,1.722,160.000,0.000,0.000,0.000,1.000,General,0.000,258.334
 ElectricEquipment Internal Gains Nominal, THERMAL ZONE 4 189.1-2009 - OFFICE - CORRIDOR - CZ1-3 ELECTRIC EQUIPMENT,OFFICE BLDG EQUIP,THERMAL ZONE 4,150.00,1.6,258.334,1.722,160.000,0.000,0.000,0.000,1.000,General,0.000,258.334
 ElectricEquipment Internal Gains Nominal, THERMAL ZONE 5 189.1-2009 - OFFICE - CORRIDOR - CZ1-3 ELECTRIC EQUIPMENT,OFFICE BLDG EQUIP,THERMAL ZONE 5,150.00,1.6,258.334,1.722,160.000,0.000,0.000,0.000,1.000,General,0.000,258.334
 ElectricEquipment Internal Gains Nominal, THERMAL ZONE 2 189.1-2009 - OFFICE - LOBBY - CZ1-3 ELECTRIC EQUIPMENT,OFFICE BLDG EQUIP,THERMAL ZONE 2,150.00,16.1,113.021,0.753,7.000,0.000,0.000,0.000,1.000,General,0.000,113.021
 ElectricEquipment Internal Gains Nominal, THERMAL ZONE 13 189.1-2009 - OFFICE - OPENOFFICE - CZ1-3 ELECTRIC EQUIPMENT,OFFICE BLDG EQUIP,THERMAL ZONE 13,600.00,33.9,4585.426,7.642,135.238,0.000,0.000,0.000,1.000,General,0.000,4585.426
 ElectricEquipment Internal Gains Nominal, THERMAL ZONE 8 189.1-2009 - OFFICE - OPENOFFICE - CZ1-3 ELECTRIC EQUIPMENT,OFFICE BLDG EQUIP,THERMAL ZONE 8,600.00,33.9,4585.426,7.642,135.238,0.000,0.000,0.000,1.000,General,0.000,4585.426
 ElectricEquipment Internal Gains Nominal, THERMAL ZONE 11 189.1-2009 - OFFICE - PRINTROOM - CZ1-3 ELECTRIC EQUIPMENT,OFFICE BLDG EQUIP,THERMAL ZONE 11,150.00,16.1,4504.697,30.031,279.000,0.000,0.000,0.000,1.000,General,0.000,4504.697
 ElectricEquipment Internal Gains Nominal, THERMAL ZONE 6 189.1-2009 - OFFICE - PRINTROOM - CZ1-3 ELECTRIC EQUIPMENT,OFFICE BLDG EQUIP,THERMAL ZONE 6,150.00,16.1,4504.697,30.031,279.000,0.000,0.000,0.000,1.000,General,0.000,4504.697
 ElectricEquipment Internal Gains Nominal, THERMAL ZONE 3 189.1-2009 - OFFICE - VENDING - CZ1-3 ELECTRIC EQUIPMENT,OFFICE BLDG EQUIP,THERMAL ZONE 3,1050.00,11.3,43513.108,41.441,3850.000,0.000,0.000,0.000,1.000,General,0.000,43513.108
! <Shadowing/Sun Position Calculations Annual Simulations>, Calculation Method, Value {days}, Allowable Number Figures in Shadow Overlap {}, Polygon Clipping Algorithm, Sky Diffuse Modeling Algorithm
Shadowing/Sun Position Calculations Annual Simulations,AverageOverDaysInFrequency,20,15000,SutherlandHodgman,SimpleSkyDiffuseModeling,InternalCalculation,No
! <ZoneInfiltration Airflow Stats Nominal>,Name,Schedule Name,Zone Name, Zone Floor Area {m2}, # Zone Occupants,Design Volume Flow Rate {m3/s},Volume Flow Rate/Floor Area {m3/s/m2},Volume Flow Rate/Exterior Surface Area {m3/s/m2},ACH - Air Changes per Hour,Equation A - Constant Term Coefficient {},Equation B - Temperature Term Coefficient {1/C},Equation C - Velocity Term Coefficient {s/m}, Equation D - Velocity Squared Term Coefficient {s2/m2}
 ZoneInfiltration Airflow Stats Nominal, THERMAL ZONE 14 189.1-2009 - OFFICE - BREAKROOM - CZ1-3 INFILTRATION,OFFICE INFIL QUARTER ON,THERMAL ZONE 14,150.00,80.7,5.743E-002,3.829E-004,3.023E-004,0.345,1.000,0.000,0.000,0.000
 ZoneInfiltration Airflow Stats Nominal, THERMAL ZONE 9 189.1-2009 - OFFICE - BREAKROOM - CZ1-3 INFILTRATION,OFFICE INFIL QUARTER ON,THERMAL ZONE 9,150.00,80.7,1.209E-002,8.060E-005,3.023E-004,7.254E-002,1.000,0.000,0.000,0.000
 ZoneInfiltration Airflow Stats Nominal, THERMAL ZONE 16 189.1-2009 - OFFICE - CONFERENCE - CZ1-3 INFILTRATION,OFFICE INFIL QUARTER ON,THERMAL ZONE 16,1050.00,565.1,0.475,4.520E-004,3.023E-004,0.407,1.000,0.000,0.000,0.000
 ZoneInfiltration Airflow Stats Nominal, THERMAL ZONE 10 189.1-2009 - OFFICE - CORRIDOR - CZ1-3 INFILTRATION,OFFICE INFIL QUARTER ON,THERMAL ZONE 10,150.00,1.6,1.209E-002,8.060E-005,3.023E-004,7.254E-002,1.000,0.000,0.000,0.000
 ZoneInfiltration Airflow Stats Nominal, THERMAL ZONE 15 189.1-2009 - OFFICE - CORRIDOR - CZ1-3 INFILTRATION,OFFICE INFIL QUARTER ON,THERMAL ZONE 15,150.00,1.6,5.743E-002,3.829E-004,3.023E-004,0.345,1.000,0.000,0.000,0.000
 ZoneInfiltration Airflow Stats Nominal, THERMAL ZONE 4 189.1-2009 - OFFICE - CORRIDOR - CZ1-3 INFILTRATION,OFFICE INFIL QUARTER ON,THERMAL ZONE 4,150.00,1.6,1.209E-002,8.060E-005,3.023E-004,7.254E-002,1.000,0.000,0.000,0.000
 ZoneInfiltration Airflow Stats Nominal, THERMAL ZONE 5 189.1-2009 - OFFICE - CORRIDOR - CZ1-3 INFILTRATION,OFFICE INFIL QUARTER ON,THERMAL ZONE 5,150.00,1.6,1.209E-002,8.060E-005,3.023E-004,7.254E-002,1.000,0.000,0.000,0.000
 ZoneInfiltration Airflow Stats Nominal, THERMAL ZONE 2 189.1-2009 - OFFICE - LOBBY - CZ1-3 INFILTRATION,OFFICE INFIL QUARTER ON,THERMAL ZONE 2,150.00,16.1,1.209E-002,8.060E-005,3.023E-004,7.254E-002,1.000,0.000,0.000,0.000
 ZoneInfiltration Airflow Stats Nominal, THERMAL ZONE 13 189.1-2009 - OFFICE - OPENOFFICE - CZ1-3 INFILTRATION,OFFICE INFIL QUARTER ON,THERMAL ZONE 13,600.00,33.9,0.266,4.433E-004,3.023E-004,0.399,1.000,0.000,0.000,0.000
 ZoneInfiltration Airflow Stats Nominal, THERMAL ZONE 8 189.1-2009 - OFFICE - OPENOFFICE - CZ1-3 INFILTRATION,OFFICE INFIL QUARTER ON,THERMAL ZONE 8,600.00,33.9,8.463E-002,1.411E-004,3.023E-004,0.127,1.000,0.000,0.000,0.000
 ZoneInfiltration Airflow Stats Nominal, THERMAL ZONE 11 189.1-2009 - OFFICE - PRINTROOM - CZ1-3 INFILTRATION,OFFICE INFIL QUARTER ON,THERMAL ZONE 11,150.00,16.1,7.557E-002,5.038E-004,3.023E-004,0.453,1.000,0.000,0.000,0.000
 ZoneInfiltration Airflow Stats Nominal, THERMAL ZONE 6 189.1-2009 - OFFICE - PRINTROOM - CZ1-3 INFILTRATION,OFFICE INFIL QUARTER ON,THERMAL ZONE 6,150.00,16.1,3.023E-002,2.015E-004,3.023E-004,0.181,1.000,0.000,0.000,0.000
 ZoneInfiltration Airflow Stats Nominal, THERMAL ZONE 1 189.1-2009 - OFFICE - STORAGE - CZ1-3 INFILTRATION,OFFICE INFIL QUARTER ON,THERMAL ZONE 1,1050.00,0.0,0.475,4.520E-004,3.023E-004,0.407,1.000,0.000,0.000,0.000
 ZoneInfiltration Airflow Stats Nominal, THERMAL ZONE 12 189.1-2009 - OFFICE - STORAGE - CZ1-3 INFILTRATION,OFFICE INFIL QUARTER ON,THERMAL ZONE 12,150.00,0.0,7.557E-002,5.038E-004,3.023E-004,0.453,1.000,0.000,0.000,0.000
 ZoneInfiltration Airflow Stats Nominal, THERMAL ZONE 7 189.1-2009 - OFFICE - STORAGE - CZ1-3 INFILTRATION,OFFICE INFIL QUARTER ON,THERMAL ZONE 7,150.00,0.0,3.023E-002,2.015E-004,3.023E-004,0.181,1.000,0.000,0.000,0.000
 ZoneInfiltration Airflow Stats Nominal, THERMAL ZONE 3 189.1-2009 - OFFICE - VENDING - CZ1-3 INFILTRATION,OFFICE INFIL QUARTER ON,THERMAL ZONE 3,1050.00,11.3,0.475,4.520E-004,3.023E-004,0.407,1.000,0.000,0.000,0.000
! <ZoneVentilation Airflow Stats Nominal>,Name,Schedule Name,Zone Name, Zone Floor Area {m2}, # Zone Occupants,Design Volume Flow Rate {m3/s},Volume Flow Rate/Floor Area {m3/s/m2},Volume Flow Rate/person Area {m3/s/person},ACH - Air Changes per Hour,Fan Type {Exhaust;Intake;Natural},Fan Pressure Rise {Pa},Fan Efficiency {},Equation A - Constant Term Coefficient {},Equation B - Temperature Term Coefficient {1/C},Equation C - Velocity Term Coefficient {s/m}, Equation D - Velocity Squared Term Coefficient {s2/m2},Minimum Indoor Temperature{C}/Schedule,Maximum Indoor Temperature{C}/Schedule,Delta Temperature{C}/Schedule,Minimum Outdoor Temperature{C}/Schedule,Maximum Outdoor Temperature{C}/Schedule,Maximum WindSpeed{m/s}
 ZoneVentilation Airflow Stats Nominal, THERMAL ZONE 1 VENTILATION PER FLOOR AREA,ALWAYS_ON,THERMAL ZONE 1,1050.00,0.0,0.267,2.540E-004,N/A,0.229,Natural,0.000,1.0,1.000,0.000,0.000,0.000,-100.00,100.00,-100.00,-100.00,100.00,40.00
 ZoneVentilation Airflow Stats Nominal, THERMAL ZONE 10 VENTILATION PER FLOOR AREA,ALWAYS_ON,THERMAL ZONE 10,150.00,1.6,3.810E-002,2.540E-004,2.360E-002,0.229,Natural,0.000,1.0,1.000,0.000,0.000,0.000,-100.00,100.00,-100.00,-100.00,100.00,40.00
 ZoneVentilation Airflow Stats Nominal, THERMAL ZONE 11 VENTILATION PER FLOOR AREA,ALWAYS_ON,THERMAL ZONE 11,150.00,16.1,3.810E-002,2.540E-004,2.360E-003,0.229,Natural,0.000,1.0,1.000,0.000,0.000,0.000,-100.00,100.00,-100.00,-100.00,100.00,40.00
 ZoneVentilation Airflow Stats Nominal, THERMAL ZONE 12 VENTILATION PER FLOOR AREA,ALWAYS_ON,THERMAL ZONE 12,150.00,0.0,3.810E-002,2.540E-004,N/A,0.229,Natural,0.000,1.0,1.000,0.000,0.000,0.000,-100.00,100.00,-100.00,-100.00,100.00,40.00
 ZoneVentilation Airflow Stats Nominal, THERMAL ZONE 13 VENTILATION PER PERSON,OFFICE WORK OCC,THERMAL ZONE 13,600.00,33.9,0.320,5.334E-004,9.439E-003,0.480,Natural,0.000,1.0,1.000,0.000,0.000,0.000,-100.00,100.00,-100.00,-100.00,100.00,40.00
 ZoneVentilation Airflow Stats Nominal, THERMAL ZONE 14 VENTILATION PER PERSON,OFFICE MISC OCC,THERMAL ZONE 14,150.00,80.7,0.572,3.810E-003,7.079E-003,3.429,Natural,0.000,1.0,1.000,0.000,0.000,0.000,-100.00,100.00,-100.00,-100.00,100.00,40.00
 ZoneVentilation Airflow Stats Nominal, THERMAL ZONE 15 VENTILATION PER FLOOR AREA,ALWAYS_ON,THERMAL ZONE 15,150.00,1.6,3.810E-002,2.540E-004,2.360E-002,0.229,Natural,0.000,1.0,1.000,0.000,0.000,0.000,-100.00,100.00,-100.00,-100.00,100.00,40.00
 ZoneVentilation Airflow Stats Nominal, THERMAL ZONE 16 VENTILATION PER PERSON,OFFICE MISC OCC,THERMAL ZONE 16,1050.00,565.1,5.334,5.080E-003,9.439E-003,4.572,Natural,0.000,1.0,1.000,0.000,0.000,0.000,-100.00,100.00,-100.00,-100.00,100.00,40.00
 ZoneVentilation Airflow Stats Nominal, THERMAL ZONE 2 VENTILATION PER PERSON,OFFICE MISC OCC,THERMAL ZONE 2,150.00,16.1,0.114,7.620E-004,7.079E-003,0.686,Natural,0.000,1.0,1.000,0.000,0.000,0.000,-100.00,100.00,-100.00,-100.00,100.00,40.00
 ZoneVentilation Airflow Stats Nominal, THERMAL ZONE 3 VENTILATION PER FLOOR AREA,ALWAYS_ON,THERMAL ZONE 3,1050.00,11.3,0.267,2.540E-004,2.360E-002,0.229,Natural,0.000,1.0,1.000,0.000,0.000,0.000,-100.00,100.00,-100.00,-100.00,100.00,40.00
 ZoneVentilation Airflow Stats Nominal, THERMAL ZONE 4 VENTILATION PER FLOOR AREA,ALWAYS_ON,THERMAL ZONE 4,150.00,1.6,3.810E-002,2.540E-004,2.360E-002,0.229,Natural,0.000,1.0,1.000,0.000,0.000,0.000,-100.00,100.00,-100.00,-100.00,100.00,40.00
 ZoneVentilation Airflow Stats Nominal, THERMAL ZONE 5 VENTILATION PER FLOOR AREA,ALWAYS_ON,THERMAL ZONE 5,150.00,1.6,3.810E-002,2.540E-004,2.360E-002,0.229,Natural,0.000,1.0,1.000,0.000,0.000,0.000,-100.00,100.00,-100.00,-100.00,100.00,40.00
 ZoneVentilation Airflow Stats Nominal, THERMAL ZONE 6 VENTILATION PER FLOOR AREA,ALWAYS_ON,THERMAL ZONE 6,150.00,16.1,3.810E-002,2.540E-004,2.360E-003,0.229,Natural,0.000,1.0,1.000,0.000,0.000,0.000,-100.00,100.00,-100.00,-100.00,100.00,40.00
 ZoneVentilation Airflow Stats Nominal, THERMAL ZONE 7 VENTILATION PER FLOOR AREA,ALWAYS_ON,THERMAL ZONE 7,150.00,0.0,3.810E-002,2.540E-004,N/A,0.229,Natural,0.000,1.0,1.000,0.000,0.000,0.000,-100.00,100.00,-100.00,-100.00,100.00,40.00
 ZoneVentilation Airflow Stats Nominal, THERMAL ZONE 8 VENTILATION PER PERSON,OFFICE WORK OCC,THERMAL ZONE 8,600.00,33.9,0.320,5.334E-004,9.439E-003,0.480,Natural,0.000,1.0,1.000,0.000,0.000,0.000,-100.00,100.00,-100.00,-100.00,100.00,40.00
 ZoneVentilation Airflow Stats Nominal, THERMAL ZONE 9 VENTILATION PER PERSON,OFFICE MISC OCC,THERMAL ZONE 9,150.00,80.7,0.572,3.810E-003,7.079E-003,3.429,Natural,0.000,1.0,1.000,0.000,0.000,0.000,-100.00,100.00,-100.00,-100.00,100.00,40.00
! <AirFlow Model>, Simple
 AirFlow Model, Simple
! <RoomAir Model>, Zone Name, Mixing/Mundt/UCSDDV/UCSDCV/UCSDUFI/UCSDUFE/User Defined
RoomAir Model,THERMAL ZONE 1,Mixing/Well-Stirred
RoomAir Model,THERMAL ZONE 10,Mixing/Well-Stirred
RoomAir Model,THERMAL ZONE 11,Mixing/Well-Stirred
RoomAir Model,THERMAL ZONE 12,Mixing/Well-Stirred
RoomAir Model,THERMAL ZONE 13,Mixing/Well-Stirred
RoomAir Model,THERMAL ZONE 14,Mixing/Well-Stirred
RoomAir Model,THERMAL ZONE 15,Mixing/Well-Stirred
RoomAir Model,THERMAL ZONE 16,Mixing/Well-Stirred
RoomAir Model,THERMAL ZONE 2,Mixing/Well-Stirred
RoomAir Model,THERMAL ZONE 3,Mixing/Well-Stirred
RoomAir Model,THERMAL ZONE 4,Mixing/Well-Stirred
RoomAir Model,THERMAL ZONE 5,Mixing/Well-Stirred
RoomAir Model,THERMAL ZONE 6,Mixing/Well-Stirred
RoomAir Model,THERMAL ZONE 7,Mixing/Well-Stirred
RoomAir Model,THERMAL ZONE 8,Mixing/Well-Stirred
RoomAir Model,THERMAL ZONE 9,Mixing/Well-Stirred
! <AirflowNetwork Model:Control>, No Multizone or Distribution/Multizone with Distribution/Multizone without Distribution/Multizone with Distribution only during Fan Operation
AirflowNetwork Model:Control,NoMultizoneOrDistribution
! <Zone Volume Capacitance Multiplier>, Sensible Heat Capacity Multiplier, Moisture Capacity Multiplier, Carbon Dioxide Capacity Multiplier, Generic Contaminant Capacity Multiplier
Zone Volume Capacitance Multiplier,   1.000 ,   1.000,   1.000,   1.000
! <Load Timesteps in Zone Design Calculation Averaging Window>, Value
 Load Timesteps in Zone Design Calculation Averaging Window,    6
! <Heating Sizing Factor Information>, Sizing Factor ID, Value
 Heating Sizing Factor Information, Global,   1.2500    
 Heating Sizing Factor Information, Zone THERMAL ZONE 1,   1.2500    
 Heating Sizing Factor Information, Zone THERMAL ZONE 10,   1.2500    
 Heating Sizing Factor Information, Zone THERMAL ZONE 11,   1.2500    
 Heating Sizing Factor Information, Zone THERMAL ZONE 12,   1.2500    
 Heating Sizing Factor Information, Zone THERMAL ZONE 13,   1.2500    
 Heating Sizing Factor Information, Zone THERMAL ZONE 14,   1.2500    
 Heating Sizing Factor Information, Zone THERMAL ZONE 15,   1.2500    
 Heating Sizing Factor Information, Zone THERMAL ZONE 16,   1.2500    
 Heating Sizing Factor Information, Zone THERMAL ZONE 2,   1.2500    
 Heating Sizing Factor Information, Zone THERMAL ZONE 3,   1.2500    
 Heating Sizing Factor Information, Zone THERMAL ZONE 4,   1.2500    
 Heating Sizing Factor Information, Zone THERMAL ZONE 5,   1.2500    
 Heating Sizing Factor Information, Zone THERMAL ZONE 6,   1.2500    
 Heating Sizing Factor Information, Zone THERMAL ZONE 7,   1.2500    
 Heating Sizing Factor Information, Zone THERMAL ZONE 8,   1.2500    
 Heating Sizing Factor Information, Zone THERMAL ZONE 9,   1.2500    
! <Cooling Sizing Factor Information>, Sizing Factor ID, Value
 Cooling Sizing Factor Information, Global,   1.1500    
 Cooling Sizing Factor Information, Zone THERMAL ZONE 1,   1.1500    
 Cooling Sizing Factor Information, Zone THERMAL ZONE 10,   1.1500    
 Cooling Sizing Factor Information, Zone THERMAL ZONE 11,   1.1500    
 Cooling Sizing Factor Information, Zone THERMAL ZONE 12,   1.1500    
 Cooling Sizing Factor Information, Zone THERMAL ZONE 13,   1.1500    
 Cooling Sizing Factor Information, Zone THERMAL ZONE 14,   1.1500    
 Cooling Sizing Factor Information, Zone THERMAL ZONE 15,   1.1500    
 Cooling Sizing Factor Information, Zone THERMAL ZONE 16,   1.1500    
 Cooling Sizing Factor Information, Zone THERMAL ZONE 2,   1.1500    
 Cooling Sizing Factor Information, Zone THERMAL ZONE 3,   1.1500    
 Cooling Sizing Factor Information, Zone THERMAL ZONE 4,   1.1500    
 Cooling Sizing Factor Information, Zone THERMAL ZONE 5,   1.1500    
 Cooling Sizing Factor Information, Zone THERMAL ZONE 6,   1.1500    
 Cooling Sizing Factor Information, Zone THERMAL ZONE 7,   1.1500    
 Cooling Sizing Factor Information, Zone THERMAL ZONE 8,   1.1500    
 Cooling Sizing Factor Information, Zone THERMAL ZONE 9,   1.1500    
! <Zone Sizing Information>, Zone Name, Load Type, Calc Des Load {W}, User Des Load {W}, Calc Des Air Flow Rate {m3/s}, User Des Air Flow Rate {m3/s}, Design Day Name, Date/Time of Peak, Temperature at Peak {C}, Humidity Ratio at Peak {kgWater/kgDryAir}, Floor Area {m2}, # Occupants, Calc Outdoor Air Flow Rate {m3/s}, Calc DOAS Heat Addition Rate {W}
 Zone Sizing Information, THERMAL ZONE 1, Cooling, 9797.73362, 11267.39366, 0.81001, 0.93152, PIACENZA ANN CLG .4% CONDNS DB=>MWB, 8/21 16:20:00, 32.06867, 1.33499E-002, 1050.00000, 0.00000, 0.26670, 0.00000
 Zone Sizing Information, THERMAL ZONE 1, Heating, 150382.69513, 187978.36891, 6.54425, 8.18031, YAKUTSK ANN HTG 99.6% CONDNS DB, 1/21 06:00:00, -50.80000, 2.21673E-005, 1050.00000, 0.00000, 0.26670, 0.00000
 Zone Sizing Information, THERMAL ZONE 10, Cooling, 2886.08990, 3319.00339, 0.22159, 0.25483, PIACENZA ANN CLG .4% CONDNS DB=>MWB, 8/21 07:00:00, 22.27100, 1.33499E-002, 150.00000, 1.61459, 3.81000E-002, 0.00000
 Zone Sizing Information, THERMAL ZONE 10, Heating, 11136.93968, 13921.17460, 0.48481, 0.60601, YAKUTSK ANN HTG 99.6% CONDNS DB, 1/21 06:00:00, -50.80000, 2.21673E-005, 150.00000, 1.61459, 3.81000E-002, 0.00000
 Zone Sizing Information, THERMAL ZONE 11, Cooling, 9549.59187, 10982.03065, 0.78969, 0.90815, PIACENZA ANN CLG .4% CONDNS DB=>MWB, 8/21 15:20:00, 32.86200, 1.33499E-002, 150.00000, 16.14587, 3.81000E-002, 0.00000
 Zone Sizing Information, THERMAL ZONE 11, Heating, 26311.00336, 32888.75420, 1.14498, 1.43122, YAKUTSK ANN HTG 99.6% CONDNS DB, 1/21 06:00:00, -50.80000, 2.21673E-005, 150.00000, 16.14587, 3.81000E-002, 0.00000
 Zone Sizing Information, THERMAL ZONE 12, Cooling, 3743.49074, 4305.01435, 0.30949, 0.35591, PIACENZA ANN CLG .4% CONDNS DB=>MWB, 8/21 17:10:00, 31.23567, 1.33499E-002, 150.00000, 0.00000, 3.81000E-002, 0.00000
 Zone Sizing Information, THERMAL ZONE 12, Heating, 26267.01606, 32833.77008, 1.14306, 1.42883, YAKUTSK ANN HTG 99.6% CONDNS DB, 1/21 06:00:00, -50.80000, 2.21673E-005, 150.00000, 0.00000, 3.81000E-002, 0.00000
 Zone Sizing Information, THERMAL ZONE 13, Cooling, 22828.58458, 26252.87227, 1.88774, 2.17091, PIACENZA ANN CLG .4% CONDNS DB=>MWB, 8/21 16:40:00, 31.75133, 1.33499E-002, 600.00000, 33.90632, 0.32004, 0.00000
 Zone Sizing Information, THERMAL ZONE 13, Heating, 71726.07516, 89657.59395, 3.12205, 3.90257, YAKUTSK ANN HTG 99.6% CONDNS DB, 1/21 06:00:00, -50.80000, 2.21673E-005, 600.00000, 33.90632, 0.32004, 0.00000
 Zone Sizing Information, THERMAL ZONE 14, Cooling, 20864.64267, 23994.33907, 1.72811, 1.98732, PIACENZA ANN CLG .4% CONDNS DB=>MWB, 8/21 15:10:00, 32.98100, 1.33499E-002, 150.00000, 80.72933, 0.57150, 0.00000
 Zone Sizing Information, THERMAL ZONE 14, Heating, 13982.42861, 17478.03576, 0.60865, 0.76082, YAKUTSK ANN HTG 99.6% CONDNS DB, 1/21 06:00:00, -50.80000, 2.21673E-005, 150.00000, 80.72933, 0.57150, 0.00000
 Zone Sizing Information, THERMAL ZONE 15, Cooling, 2684.86777, 3087.59794, 0.22197, 0.25527, PIACENZA ANN CLG .4% CONDNS DB=>MWB, 8/21 16:30:00, 31.91000, 1.33499E-002, 150.00000, 1.61459, 3.81000E-002, 0.00000
 Zone Sizing Information, THERMAL ZONE 15, Heating, 18426.54192, 23033.17740, 0.80194, 1.00242, YAKUTSK ANN HTG 99.6% CONDNS DB, 1/21 06:00:00, -50.80000, 2.21673E-005, 150.00000, 1.61459, 3.81000E-002, 0.00000
 Zone Sizing Information, THERMAL ZONE 16, Cooling, 102563.49919, 117948.02407, 8.49558, 9.76991, PIACENZA ANN CLG .4% CONDNS DB=>MWB, 8/21 15:10:00, 32.98100, 1.33499E-002, 1050.00000, 565.10530, 5.33400, 0.00000
 Zone Sizing Information, THERMAL ZONE 16, Heating, 118880.07713, 148600.09641, 5.17440, 6.46800, YAKUTSK ANN HTG 99.6% CONDNS DB, 1/21 06:00:00, -50.80000, 2.21673E-005, 1050.00000, 565.10530, 5.33400, 0.00000
 Zone Sizing Information, THERMAL ZONE 2, Cooling, 3193.95892, 3673.05276, 0.26414, 0.30376, PIACENZA ANN CLG .4% CONDNS DB=>MWB, 8/21 14:50:00, 33.10000, 1.33499E-002, 150.00000, 16.14587, 0.11430, 0.00000
 Zone Sizing Information, THERMAL ZONE 2, Heating, 6336.23054, 7920.28817, 0.27589, 0.34486, YAKUTSK ANN HTG 99.6% CONDNS DB, 1/21 06:00:00, -50.80000, 2.21673E-005, 150.00000, 16.14587, 0.11430, 0.00000
 Zone Sizing Information, THERMAL ZONE 3, Cooling, 51289.47109, 58982.89175, 4.24056, 4.87664, PIACENZA ANN CLG .4% CONDNS DB=>MWB, 8/21 16:10:00, 32.22733, 1.33499E-002, 1050.00000, 11.30211, 0.26670, 0.00000
 Zone Sizing Information, THERMAL ZONE 3, Heating, 148521.88677, 185652.35846, 6.46320, 8.07901, YAKUTSK ANN HTG 99.6% CONDNS DB, 1/21 06:00:00, -50.80000, 2.21673E-005, 1050.00000, 11.30211, 0.26670, 0.00000
 Zone Sizing Information, THERMAL ZONE 4, Cooling, 1793.56609, 2062.60100, 0.14828, 0.17052, PIACENZA ANN CLG .4% CONDNS DB=>MWB, 8/21 15:00:00, 33.10000, 1.33499E-002, 150.00000, 1.61459, 3.81000E-002, 0.00000
 Zone Sizing Information, THERMAL ZONE 4, Heating, 10838.83360, 13548.54200, 0.47183, 0.58979, YAKUTSK ANN HTG 99.6% CONDNS DB, 1/21 06:00:00, -50.80000, 2.21673E-005, 150.00000, 1.61459, 3.81000E-002, 0.00000
 Zone Sizing Information, THERMAL ZONE 5, Cooling, 2123.66348, 2442.21301, 0.17557, 0.20190, PIACENZA ANN CLG .4% CONDNS DB=>MWB, 8/21 14:50:00, 33.10000, 1.33499E-002, 150.00000, 1.61459, 3.81000E-002, 0.00000
 Zone Sizing Information, THERMAL ZONE 5, Heating, 10730.07732, 13412.59665, 0.46710, 0.58387, YAKUTSK ANN HTG 99.6% CONDNS DB, 1/21 06:00:00, -50.80000, 2.21673E-005, 150.00000, 1.61459, 3.81000E-002, 0.00000
 Zone Sizing Information, THERMAL ZONE 6, Cooling, 7397.84994, 8507.52743, 0.61177, 0.70353, PIACENZA ANN CLG .4% CONDNS DB=>MWB, 8/21 14:30:00, 33.10000, 1.33499E-002, 150.00000, 16.14587, 3.81000E-002, 0.00000
 Zone Sizing Information, THERMAL ZONE 6, Heating, 17847.33032, 22309.16290, 0.77684, 0.97105, YAKUTSK ANN HTG 99.6% CONDNS DB, 1/21 06:00:00, -50.80000, 2.21673E-005, 150.00000, 16.14587, 3.81000E-002, 0.00000
 Zone Sizing Information, THERMAL ZONE 7, Cooling, 1589.85458, 1828.33277, 0.13144, 0.15115, PIACENZA ANN CLG .4% CONDNS DB=>MWB, 8/21 16:00:00, 32.38600, 1.33499E-002, 150.00000, 0.00000, 3.81000E-002, 0.00000
 Zone Sizing Information, THERMAL ZONE 7, Heating, 17808.77153, 22260.96441, 0.77516, 0.96896, YAKUTSK ANN HTG 99.6% CONDNS DB, 1/21 06:00:00, -50.80000, 2.21673E-005, 150.00000, 0.00000, 3.81000E-002, 0.00000
 Zone Sizing Information, THERMAL ZONE 8, Cooling, 14774.60055, 16990.79064, 1.22172, 1.40498, PIACENZA ANN CLG .4% CONDNS DB=>MWB, 8/21 15:40:00, 32.62400, 1.33499E-002, 600.00000, 33.90632, 0.32004, 0.00000
 Zone Sizing Information, THERMAL ZONE 8, Heating, 39136.78948, 48920.98685, 1.70398, 2.12997, YAKUTSK ANN HTG 99.6% CONDNS DB, 1/21 06:00:00, -50.80000, 2.21673E-005, 600.00000, 33.90632, 0.32004, 0.00000
 Zone Sizing Information, THERMAL ZONE 9, Cooling, 18618.57854, 21411.36532, 1.54238, 1.77373, PIACENZA ANN CLG .4% CONDNS DB=>MWB, 8/21 15:00:00, 33.10000, 1.33499E-002, 150.00000, 80.72933, 0.57150, 0.00000
 Zone Sizing Information, THERMAL ZONE 9, Heating, 6263.35478, 7829.19348, 0.27272, 0.57150, YAKUTSK ANN HTG 99.6% CONDNS DB, 1/21 06:00:00, -50.80000, 2.21673E-005, 150.00000, 80.72933, 0.57150, 0.00000
! <Component Sizing Information>, Component Type, Component Name, Input Field Description, Value
 Component Sizing Information, ZoneHVAC:IdealLoadsAirSystem, THERMAL ZONE 1 IDEAL LOADS AIR SYSTEM, User-Specified Maximum Heating Air Flow Rate [m3/s], 0.00000
 Component Sizing Information, ZoneHVAC:IdealLoadsAirSystem, THERMAL ZONE 1 IDEAL LOADS AIR SYSTEM, User-Specified Maximum Cooling Air Flow Rate [m3/s], 0.00000
 Component Sizing Information, ZoneHVAC:IdealLoadsAirSystem, THERMAL ZONE 10 IDEAL LOADS AIR SYSTEM, User-Specified Maximum Heating Air Flow Rate [m3/s], 0.00000
 Component Sizing Information, ZoneHVAC:IdealLoadsAirSystem, THERMAL ZONE 10 IDEAL LOADS AIR SYSTEM, User-Specified Maximum Cooling Air Flow Rate [m3/s], 0.00000
 Component Sizing Information, ZoneHVAC:IdealLoadsAirSystem, THERMAL ZONE 11 IDEAL LOADS AIR SYSTEM, User-Specified Maximum Heating Air Flow Rate [m3/s], 0.00000
 Component Sizing Information, ZoneHVAC:IdealLoadsAirSystem, THERMAL ZONE 11 IDEAL LOADS AIR SYSTEM, User-Specified Maximum Cooling Air Flow Rate [m3/s], 0.00000
 Component Sizing Information, ZoneHVAC:IdealLoadsAirSystem, THERMAL ZONE 12 IDEAL LOADS AIR SYSTEM, User-Specified Maximum Heating Air Flow Rate [m3/s], 0.00000
 Component Sizing Information, ZoneHVAC:IdealLoadsAirSystem, THERMAL ZONE 12 IDEAL LOADS AIR SYSTEM, User-Specified Maximum Cooling Air Flow Rate [m3/s], 0.00000
 Component Sizing Information, ZoneHVAC:IdealLoadsAirSystem, THERMAL ZONE 13 IDEAL LOADS AIR SYSTEM, User-Specified Maximum Heating Air Flow Rate [m3/s], 0.00000
 Component Sizing Information, ZoneHVAC:IdealLoadsAirSystem, THERMAL ZONE 13 IDEAL LOADS AIR SYSTEM, User-Specified Maximum Cooling Air Flow Rate [m3/s], 0.00000
 Component Sizing Information, ZoneHVAC:IdealLoadsAirSystem, THERMAL ZONE 14 IDEAL LOADS AIR SYSTEM, User-Specified Maximum Heating Air Flow Rate [m3/s], 0.00000
 Component Sizing Information, ZoneHVAC:IdealLoadsAirSystem, THERMAL ZONE 14 IDEAL LOADS AIR SYSTEM, User-Specified Maximum Cooling Air Flow Rate [m3/s], 0.00000
 Component Sizing Information, ZoneHVAC:IdealLoadsAirSystem, THERMAL ZONE 15 IDEAL LOADS AIR SYSTEM, User-Specified Maximum Heating Air Flow Rate [m3/s], 0.00000
 Component Sizing Information, ZoneHVAC:IdealLoadsAirSystem, THERMAL ZONE 15 IDEAL LOADS AIR SYSTEM, User-Specified Maximum Cooling Air Flow Rate [m3/s], 0.00000
 Component Sizing Information, ZoneHVAC:IdealLoadsAirSystem, THERMAL ZONE 16 IDEAL LOADS AIR SYSTEM, User-Specified Maximum Heating Air Flow Rate [m3/s], 0.00000
 Component Sizing Information, ZoneHVAC:IdealLoadsAirSystem, THERMAL ZONE 16 IDEAL LOADS AIR SYSTEM, User-Specified Maximum Cooling Air Flow Rate [m3/s], 0.00000
 Component Sizing Information, ZoneHVAC:IdealLoadsAirSystem, THERMAL ZONE 2 IDEAL LOADS AIR SYSTEM, User-Specified Maximum Heating Air Flow Rate [m3/s], 0.00000
 Component Sizing Information, ZoneHVAC:IdealLoadsAirSystem, THERMAL ZONE 2 IDEAL LOADS AIR SYSTEM, User-Specified Maximum Cooling Air Flow Rate [m3/s], 0.00000
 Component Sizing Information, ZoneHVAC:IdealLoadsAirSystem, THERMAL ZONE 3 IDEAL LOADS AIR SYSTEM, User-Specified Maximum Heating Air Flow Rate [m3/s], 0.00000
 Component Sizing Information, ZoneHVAC:IdealLoadsAirSystem, THERMAL ZONE 3 IDEAL LOADS AIR SYSTEM, User-Specified Maximum Cooling Air Flow Rate [m3/s], 0.00000
 Component Sizing Information, ZoneHVAC:IdealLoadsAirSystem, THERMAL ZONE 4 IDEAL LOADS AIR SYSTEM, User-Specified Maximum Heating Air Flow Rate [m3/s], 0.00000
 Component Sizing Information, ZoneHVAC:IdealLoadsAirSystem, THERMAL ZONE 4 IDEAL LOADS AIR SYSTEM, User-Specified Maximum Cooling Air Flow Rate [m3/s], 0.00000
 Component Sizing Information, ZoneHVAC:IdealLoadsAirSystem, THERMAL ZONE 5 IDEAL LOADS AIR SYSTEM, User-Specified Maximum Heating Air Flow Rate [m3/s], 0.00000
 Component Sizing Information, ZoneHVAC:IdealLoadsAirSystem, THERMAL ZONE 5 IDEAL LOADS AIR SYSTEM, User-Specified Maximum Cooling Air Flow Rate [m3/s], 0.00000
 Component Sizing Information, ZoneHVAC:IdealLoadsAirSystem, THERMAL ZONE 6 IDEAL LOADS AIR SYSTEM, User-Specified Maximum Heating Air Flow Rate [m3/s], 0.00000
 Component Sizing Information, ZoneHVAC:IdealLoadsAirSystem, THERMAL ZONE 6 IDEAL LOADS AIR SYSTEM, User-Specified Maximum Cooling Air Flow Rate [m3/s], 0.00000
 Component Sizing Information, ZoneHVAC:IdealLoadsAirSystem, THERMAL ZONE 7 IDEAL LOADS AIR SYSTEM, User-Specified Maximum Heating Air Flow Rate [m3/s], 0.00000
 Component Sizing Information, ZoneHVAC:IdealLoadsAirSystem, THERMAL ZONE 7 IDEAL LOADS AIR SYSTEM, User-Specified Maximum Cooling Air Flow Rate [m3/s], 0.00000
 Component Sizing Information, ZoneHVAC:IdealLoadsAirSystem, THERMAL ZONE 8 IDEAL LOADS AIR SYSTEM, User-Specified Maximum Heating Air Flow Rate [m3/s], 0.00000
 Component Sizing Information, ZoneHVAC:IdealLoadsAirSystem, THERMAL ZONE 8 IDEAL LOADS AIR SYSTEM, User-Specified Maximum Cooling Air Flow Rate [m3/s], 0.00000
 Component Sizing Information, ZoneHVAC:IdealLoadsAirSystem, THERMAL ZONE 9 IDEAL LOADS AIR SYSTEM, User-Specified Maximum Heating Air Flow Rate [m3/s], 0.00000
 Component Sizing Information, ZoneHVAC:IdealLoadsAirSystem, THERMAL ZONE 9 IDEAL LOADS AIR SYSTEM, User-Specified Maximum Cooling Air Flow Rate [m3/s], 0.00000
! <Environment>,Environment Name,Environment Type, Start Date, End Date, Start DayOfWeek, Duration {#days}, Source:Start DayOfWeek,  Use Daylight Saving, Use Holidays, Apply Weekend Holiday Rule,  Use Rain Values, Use Snow Values
! <Environment:Special Days>, Special Day Name, Special Day Type, Source, Start Date, Duration {#days}
! <Environment:Daylight Saving>, Daylight Saving Indicator, Source, Start Date, End Date
! <Environment:WarmupDays>, NumberofWarmupDays
Environment,MEXICO CITY ANN CLG .4% CONDNS DB=>MWB,SizingPeriod:DesignDay,05/21,05/21,SummerDesignDay,1,N/A,N/A,N/A,N/A,N/A,N/A
Environment:Daylight Saving,No,SizingPeriod:DesignDay
! <Environment:Design Day Data>, Max Dry-Bulb Temp {C}, Temp Range {dC}, Temp Range Ind Type, Hum Ind Value at Max Temp, Hum Ind Type,Pressure {Pa}, Wind Direction {deg CW from N}, Wind Speed {m/s}, Clearness, Rain, Snow
! <Environment:Design Day Misc>,DayOfYear,ASHRAE A Coeff,ASHRAE B Coeff,ASHRAE C Coeff,Solar Constant-Annual Variation,Eq of Time {minutes}, Solar Declination Angle {deg}, Solar Model
Environment:Design Day Data,29.00,13.80,DefaultMultipliers,99726,0,4.9,0.00,No,No
Environment:Design Day Misc,141,1102.7,0.1968,0.1213,1.0,3.61,20.0,ASHRAETau
Environment:WarmupDays,  6
! <Tabular Report>,Style,Unit Conversion
Tabular Report,HTML,None
! <Warmup Convergence Information>,Zone Name,Environment Type/Name,Average Warmup Temperature Difference {deltaC},Std Dev Warmup Temperature Difference {deltaC},Max Temperature Pass/Fail Convergence,Min Temperature Pass/Fail Convergence,Average Warmup Load Difference {W},Std Dev Warmup Load Difference {W},Heating Load Pass/Fail Convergence,Cooling Load Pass/Fail Convergence
 Warmup Convergence Information,THERMAL ZONE 1,SizingPeriod: MEXICO CITY ANN CLG .4% CONDNS DB=>MWB,5.1789852590E-002,3.8455022831E-002,Pass,Pass,4.1867262052E-002,0.1834394943,Pass,Pass
 Warmup Convergence Information,THERMAL ZONE 10,SizingPeriod: MEXICO CITY ANN CLG .4% CONDNS DB=>MWB,1.8730232228E-002,7.3384947037E-002,Pass,Pass,3.3427059389E-002,0.1715015838,Pass,Pass
 Warmup Convergence Information,THERMAL ZONE 11,SizingPeriod: MEXICO CITY ANN CLG .4% CONDNS DB=>MWB,3.8325018462E-002,0.2799450161,Pass,Pass,3.1765306136E-002,0.1392500753,Pass,Pass
 Warmup Convergence Information,THERMAL ZONE 12,SizingPeriod: MEXICO CITY ANN CLG .4% CONDNS DB=>MWB,2.8042723658E-002,3.9591183031E-002,Pass,Pass,2.7754722388E-002,8.3861612716E-002,Pass,Pass
 Warmup Convergence Information,THERMAL ZONE 13,SizingPeriod: MEXICO CITY ANN CLG .4% CONDNS DB=>MWB,4.1948218853E-002,0.2721010795,Pass,Pass,0.2902537374,2.5150562445,Pass,Pass
 Warmup Convergence Information,THERMAL ZONE 14,SizingPeriod: MEXICO CITY ANN CLG .4% CONDNS DB=>MWB,3.8110694301E-002,0.2940378222,Pass,Pass,1.8980567750E-002,5.7669620794E-002,Pass,Pass
 Warmup Convergence Information,THERMAL ZONE 15,SizingPeriod: MEXICO CITY ANN CLG .4% CONDNS DB=>MWB,2.3714290930E-002,3.6440855376E-002,Pass,Pass,2.6402859200E-002,0.1029825181,Pass,Pass
 Warmup Convergence Information,THERMAL ZONE 16,SizingPeriod: MEXICO CITY ANN CLG .4% CONDNS DB=>MWB,3.3680693119E-002,7.8837992433E-002,Pass,Pass,3.3650297180E-002,7.3541810589E-002,Pass,Pass
 Warmup Convergence Information,THERMAL ZONE 2,SizingPeriod: MEXICO CITY ANN CLG .4% CONDNS DB=>MWB,1.2096104864E-002,1.9833331719E-002,Pass,Pass,2.9599112571E-002,8.7360623074E-002,Pass,Pass
 Warmup Convergence Information,THERMAL ZONE 3,SizingPeriod: MEXICO CITY ANN CLG .4% CONDNS DB=>MWB,3.9017865453E-002,0.2776583397,Pass,Pass,4.1568688024E-002,0.1912081363,Pass,Pass
 Warmup Convergence Information,THERMAL ZONE 4,SizingPeriod: MEXICO CITY ANN CLG .4% CONDNS DB=>MWB,7.2060063706E-003,1.4586844834E-002,Pass,Pass,2.9692259544E-002,8.4499488798E-002,Pass,Pass
 Warmup Convergence Information,THERMAL ZONE 5,SizingPeriod: MEXICO CITY ANN CLG .4% CONDNS DB=>MWB,8.6839932089E-003,2.2040647831E-002,Pass,Pass,2.5509664697E-002,9.1634842026E-002,Pass,Pass
 Warmup Convergence Information,THERMAL ZONE 6,SizingPeriod: MEXICO CITY ANN CLG .4% CONDNS DB=>MWB,3.8873509183E-002,0.2689869594,Pass,Pass,7.4315231451E-002,0.4700062033,Pass,Pass
 Warmup Convergence Information,THERMAL ZONE 7,SizingPeriod: MEXICO CITY ANN CLG .4% CONDNS DB=>MWB,3.8801279863E-002,3.1486492402E-002,Pass,Pass,4.8357338002E-002,0.2373094010,Pass,Pass
 Warmup Convergence Information,THERMAL ZONE 8,SizingPeriod: MEXICO CITY ANN CLG .4% CONDNS DB=>MWB,2.4346030325E-002,0.1279423279,Pass,Pass,3.6316797478E-002,0.1823535404,Pass,Pass
 Warmup Convergence Information,THERMAL ZONE 9,SizingPeriod: MEXICO CITY ANN CLG .4% CONDNS DB=>MWB,3.8570680290E-002,0.2912673617,Pass,Pass,2.3420922959E-002,7.1417827652E-002,Pass,Pass
Environment,MEXICO CITY ANN CLG .4% CONDNS DP=>MDB,SizingPeriod:DesignDay,05/21,05/21,SummerDesignDay,1,N/A,N/A,N/A,N/A,N/A,N/A
Environment:Daylight Saving,No,SizingPeriod:DesignDay
Environment:Design Day Data,18.20,13.80,DefaultMultipliers,99726,0,4.9,0.00,No,No
Environment:Design Day Misc,141,1102.7,0.1968,0.1213,1.0,3.61,20.0,ASHRAETau
Environment:WarmupDays,  6
 Warmup Convergence Information,THERMAL ZONE 1,SizingPeriod: MEXICO CITY ANN CLG .4% CONDNS DP=>MDB,7.5333088393E-002,5.8037513144E-002,Pass,Pass,1.9327558434E-002,0.1005647816,Pass,Pass
 Warmup Convergence Information,THERMAL ZONE 10,SizingPeriod: MEXICO CITY ANN CLG .4% CONDNS DP=>MDB,4.1256377980E-002,2.2040684354E-002,Pass,Pass,0.0000000000,0.0000000000,Pass,Pass
 Warmup Convergence Information,THERMAL ZONE 11,SizingPeriod: MEXICO CITY ANN CLG .4% CONDNS DP=>MDB,2.3863342920E-002,7.2501144026E-002,Pass,Pass,1.3981673711E-002,7.8331948615E-002,Pass,Pass
 Warmup Convergence Information,THERMAL ZONE 12,SizingPeriod: MEXICO CITY ANN CLG .4% CONDNS DP=>MDB,7.4693194138E-002,4.8007116491E-002,Pass,Pass,1.5124140628E-002,0.1045608178,Pass,Pass
 Warmup Convergence Information,THERMAL ZONE 13,SizingPeriod: MEXICO CITY ANN CLG .4% CONDNS DP=>MDB,3.4803388341E-002,3.5600335970E-002,Pass,Pass,5.3305272825E-002,0.1891444505,Pass,Pass
 Warmup Convergence Information,THERMAL ZONE 14,SizingPeriod: MEXICO CITY ANN CLG .4% CONDNS DP=>MDB,5.9058761788E-002,0.3791863475,Pass,Pass,4.6274029279E-002,0.1099049785,Pass,Pass
 Warmup Convergence Information,THERMAL ZONE 15,SizingPeriod: MEXICO CITY ANN CLG .4% CONDNS DP=>MDB,6.9882441494E-002,5.3552117548E-002,Pass,Pass,0.0000000000,0.0000000000,Pass,Pass
 Warmup Convergence Information,THERMAL ZONE 16,SizingPeriod: MEXICO CITY ANN CLG .4% CONDNS DP=>MDB,0.1477443321,0.1969208121,Pass,Pass,1.7171699740E-002,0.1544740496,Pass,Pass
 Warmup Convergence Information,THERMAL ZONE 2,SizingPeriod: MEXICO CITY ANN CLG .4% CONDNS DP=>MDB,5.3270092167E-002,4.3601091884E-002,Pass,Pass,0.0000000000,0.0000000000,Pass,Pass
 Warmup Convergence Information,THERMAL ZONE 3,SizingPeriod: MEXICO CITY ANN CLG .4% CONDNS DP=>MDB,3.3048426266E-002,0.1351457582,Pass,Pass,1.4182534396E-002,7.7881337800E-002,Pass,Pass
 Warmup Convergence Information,THERMAL ZONE 4,SizingPeriod: MEXICO CITY ANN CLG .4% CONDNS DP=>MDB,4.0474915402E-002,2.3687718877E-002,Pass,Pass,0.0000000000,0.0000000000,Pass,Pass
 Warmup Convergence Information,THERMAL ZONE 5,SizingPeriod: MEXICO CITY ANN CLG .4% CONDNS DP=>MDB,4.2539908538E-002,2.4125157405E-002,Pass,Pass,0.0000000000,0.0000000000,Pass,Pass
 Warmup Convergence Information,THERMAL ZONE 6,SizingPeriod: MEXICO CITY ANN CLG .4% CONDNS DP=>MDB,2.1234114764E-002,7.6565489331E-002,Pass,Pass,1.4581566437E-002,7.6032622240E-002,Pass,Pass
 Warmup Convergence Information,THERMAL ZONE 7,SizingPeriod: MEXICO CITY ANN CLG .4% CONDNS DP=>MDB,6.4683981710E-002,3.5927230483E-002,Pass,Pass,0.0000000000,0.0000000000,Pass,Pass
 Warmup Convergence Information,THERMAL ZONE 8,SizingPeriod: MEXICO CITY ANN CLG .4% CONDNS DP=>MDB,4.2513749323E-002,4.1434987063E-002,Pass,Pass,2.9303459768E-002,0.1109594954,Pass,Pass
 Warmup Convergence Information,THERMAL ZONE 9,SizingPeriod: MEXICO CITY ANN CLG .4% CONDNS DP=>MDB,6.3238977016E-002,0.3866641325,Pass,Pass,5.2251739048E-002,0.1092085844,Pass,Pass
Environment,MEXICO CITY ANN CLG .4% CONDNS ENTH=>MDB,SizingPeriod:DesignDay,05/21,05/21,SummerDesignDay,1,N/A,N/A,N/A,N/A,N/A,N/A
Environment:Daylight Saving,No,SizingPeriod:DesignDay
Environment:Design Day Data,23.10,13.80,DefaultMultipliers,99726,0,4.9,0.00,No,No
Environment:Design Day Misc,141,1102.7,0.1968,0.1213,1.0,3.61,20.0,ASHRAETau
Environment:WarmupDays,  6
 Warmup Convergence Information,THERMAL ZONE 1,SizingPeriod: MEXICO CITY ANN CLG .4% CONDNS ENTH=>MDB,7.7400497192E-002,4.2118497686E-002,Pass,Pass,0.0000000000,0.0000000000,Pass,Pass
 Warmup Convergence Information,THERMAL ZONE 10,SizingPeriod: MEXICO CITY ANN CLG .4% CONDNS ENTH=>MDB,2.6003055304E-002,2.5984675631E-002,Pass,Pass,6.5881041181E-002,0.2914123470,Pass,Pass
 Warmup Convergence Information,THERMAL ZONE 11,SizingPeriod: MEXICO CITY ANN CLG .4% CONDNS ENTH=>MDB,3.9115594044E-002,0.2672658371,Pass,Pass,4.1299890098E-002,0.1095747778,Pass,Pass
 Warmup Convergence Information,THERMAL ZONE 12,SizingPeriod: MEXICO CITY ANN CLG .4% CONDNS ENTH=>MDB,7.2570829822E-002,4.8390575022E-002,Pass,Pass,2.6668607100E-002,0.1227431160,Pass,Pass
 Warmup Convergence Information,THERMAL ZONE 13,SizingPeriod: MEXICO CITY ANN CLG .4% CONDNS ENTH=>MDB,2.0674154561E-002,5.4871903883E-002,Pass,Pass,2.9871855294E-002,7.2665623455E-002,Pass,Pass
 Warmup Convergence Information,THERMAL ZONE 14,SizingPeriod: MEXICO CITY ANN CLG .4% CONDNS ENTH=>MDB,4.2021899291E-002,0.3098052897,Pass,Pass,3.2127575355E-002,0.1213474892,Pass,Pass
 Warmup Convergence Information,THERMAL ZONE 15,SizingPeriod: MEXICO CITY ANN CLG .4% CONDNS ENTH=>MDB,5.6196232577E-002,5.1116488388E-002,Pass,Pass,8.9869449132E-002,0.6640812741,Pass,Pass
 Warmup Convergence Information,THERMAL ZONE 16,SizingPeriod: MEXICO CITY ANN CLG .4% CONDNS ENTH=>MDB,9.5218642581E-002,0.1527818505,Pass,Pass,3.9540282654E-002,0.1382401914,Pass,Pass
 Warmup Convergence Information,THERMAL ZONE 2,SizingPeriod: MEXICO CITY ANN CLG .4% CONDNS ENTH=>MDB,3.4929273454E-002,3.5457015774E-002,Pass,Pass,4.1039740090E-002,0.1609052643,Pass,Pass
 Warmup Convergence Information,THERMAL ZONE 3,SizingPeriod: MEXICO CITY ANN CLG .4% CONDNS ENTH=>MDB,3.9897204757E-002,0.2657582211,Pass,Pass,3.5598408094E-002,9.7056546315E-002,Pass,Pass
 Warmup Convergence Information,THERMAL ZONE 4,SizingPeriod: MEXICO CITY ANN CLG .4% CONDNS ENTH=>MDB,3.0303009419E-002,2.2426025810E-002,Pass,Pass,3.8054177112E-002,0.1711059415,Pass,Pass
 Warmup Convergence Information,THERMAL ZONE 5,SizingPeriod: MEXICO CITY ANN CLG .4% CONDNS ENTH=>MDB,3.0204168841E-002,2.6107380358E-002,Pass,Pass,7.7205399329E-002,0.4819777234,Pass,Pass
 Warmup Convergence Information,THERMAL ZONE 6,SizingPeriod: MEXICO CITY ANN CLG .4% CONDNS ENTH=>MDB,4.2722591938E-002,0.2394806998,Pass,Pass,6.5845593287E-002,0.3534381524,Pass,Pass
 Warmup Convergence Information,THERMAL ZONE 7,SizingPeriod: MEXICO CITY ANN CLG .4% CONDNS ENTH=>MDB,6.0319500351E-002,2.9807076626E-002,Pass,Pass,0.0000000000,0.0000000000,Pass,Pass
 Warmup Convergence Information,THERMAL ZONE 8,SizingPeriod: MEXICO CITY ANN CLG .4% CONDNS ENTH=>MDB,1.4700328675E-002,2.6456477456E-002,Pass,Pass,6.5462017237E-002,0.2615441064,Pass,Pass
 Warmup Convergence Information,THERMAL ZONE 9,SizingPeriod: MEXICO CITY ANN CLG .4% CONDNS ENTH=>MDB,4.4461679861E-002,0.3195485335,Pass,Pass,5.0019075467E-002,0.2143789527,Pass,Pass
Environment,MEXICO CITY ANN CLG .4% CONDNS WB=>MDB,SizingPeriod:DesignDay,05/21,05/21,SummerDesignDay,1,N/A,N/A,N/A,N/A,N/A,N/A
Environment:Daylight Saving,No,SizingPeriod:DesignDay
Environment:Design Day Data,23.40,13.80,DefaultMultipliers,99726,0,4.9,0.00,No,No
Environment:Design Day Misc,141,1102.7,0.1968,0.1213,1.0,3.61,20.0,ASHRAETau
Environment:WarmupDays,  6
 Warmup Convergence Information,THERMAL ZONE 1,SizingPeriod: MEXICO CITY ANN CLG .4% CONDNS WB=>MDB,7.6481748349E-002,4.2510425739E-002,Pass,Pass,0.0000000000,0.0000000000,Pass,Pass
 Warmup Convergence Information,THERMAL ZONE 10,SizingPeriod: MEXICO CITY ANN CLG .4% CONDNS WB=>MDB,2.4352291221E-002,2.5643468379E-002,Pass,Pass,4.7646648677E-002,0.1375304890,Pass,Pass
 Warmup Convergence Information,THERMAL ZONE 11,SizingPeriod: MEXICO CITY ANN CLG .4% CONDNS WB=>MDB,3.9051108203E-002,0.2683400699,Pass,Pass,3.6984691703E-002,0.1172781962,Pass,Pass
 Warmup Convergence Information,THERMAL ZONE 12,SizingPeriod: MEXICO CITY ANN CLG .4% CONDNS WB=>MDB,7.0081548493E-002,5.1249396219E-002,Pass,Pass,4.8098555149E-002,0.2994979930,Pass,Pass
 Warmup Convergence Information,THERMAL ZONE 13,SizingPeriod: MEXICO CITY ANN CLG .4% CONDNS WB=>MDB,2.3141605957E-002,6.6055818128E-002,Pass,Pass,2.8397282796E-002,7.3354249811E-002,Pass,Pass
 Warmup Convergence Information,THERMAL ZONE 14,SizingPeriod: MEXICO CITY ANN CLG .4% CONDNS WB=>MDB,4.1562354217E-002,0.3075655119,Pass,Pass,3.3039650099E-002,0.1320375651,Pass,Pass
 Warmup Convergence Information,THERMAL ZONE 15,SizingPeriod: MEXICO CITY ANN CLG .4% CONDNS WB=>MDB,5.4224997472E-002,5.2909491011E-002,Pass,Pass,6.2928413000E-002,0.3536623466,Pass,Pass
 Warmup Convergence Information,THERMAL ZONE 16,SizingPeriod: MEXICO CITY ANN CLG .4% CONDNS WB=>MDB,9.2297688081E-002,0.1493577713,Pass,Pass,4.3264864704E-002,0.1603105549,Pass,Pass
 Warmup Convergence Information,THERMAL ZONE 2,SizingPeriod: MEXICO CITY ANN CLG .4% CONDNS WB=>MDB,3.3421664020E-002,3.4907938537E-002,Pass,Pass,4.0798852040E-002,0.1508887934,Pass,Pass
 Warmup Convergence Information,THERMAL ZONE 3,SizingPeriod: MEXICO CITY ANN CLG .4% CONDNS WB=>MDB,3.9853784132E-002,0.2663658533,Pass,Pass,3.3643589626E-002,0.1116290159,Pass,Pass
 Warmup Convergence Information,THERMAL ZONE 4,SizingPeriod: MEXICO CITY ANN CLG .4% CONDNS WB=>MDB,2.8700903409E-002,2.2907399626E-002,Pass,Pass,3.1473256429E-002,0.1107228679,Pass,Pass
 Warmup Convergence Information,THERMAL ZONE 5,SizingPeriod: MEXICO CITY ANN CLG .4% CONDNS WB=>MDB,2.8588415119E-002,2.6503264588E-002,Pass,Pass,0.2630119193,2.6737018088,Pass,Pass
 Warmup Convergence Information,THERMAL ZONE 6,SizingPeriod: MEXICO CITY ANN CLG .4% CONDNS WB=>MDB,4.2774142238E-002,0.2487306178,Pass,Pass,5.6144588497E-002,0.2127574943,Pass,Pass
 Warmup Convergence Information,THERMAL ZONE 7,SizingPeriod: MEXICO CITY ANN CLG .4% CONDNS WB=>MDB,5.9586066015E-002,2.9820623751E-002,Pass,Pass,0.0000000000,0.0000000000,Pass,Pass
 Warmup Convergence Information,THERMAL ZONE 8,SizingPeriod: MEXICO CITY ANN CLG .4% CONDNS WB=>MDB,1.3873446961E-002,2.5376511256E-002,Pass,Pass,4.9924497056E-002,0.1256260900,Pass,Pass
 Warmup Convergence Information,THERMAL ZONE 9,SizingPeriod: MEXICO CITY ANN CLG .4% CONDNS WB=>MDB,4.3666579538E-002,0.3152500079,Pass,Pass,4.7014960268E-002,0.2019737276,Pass,Pass
Environment,MEXICO CITY ANN HTG 99.6% CONDNS DB,SizingPeriod:DesignDay,01/21,01/21,WinterDesignDay,1,N/A,N/A,N/A,N/A,N/A,N/A
Environment:Daylight Saving,No,SizingPeriod:DesignDay
Environment:Design Day Data,4.10,0.00,DefaultMultipliers,99726,60,1.7,0.00,No,No
Environment:Design Day Misc, 21,1229.0,0.1415,5.7310E-002,1.0,-11.15,-20.1,ASHRAEClearSky
Environment:WarmupDays,  6
 Warmup Convergence Information,THERMAL ZONE 1,SizingPeriod: MEXICO CITY ANN HTG 99.6% CONDNS DB,4.7542217077E-014,5.8378538902E-014,Pass,Pass,3.3372702733E-003,2.8319692962E-002,Pass,Pass
 Warmup Convergence Information,THERMAL ZONE 10,SizingPeriod: MEXICO CITY ANN HTG 99.6% CONDNS DB,9.3752166524E-015,2.2216738084E-014,Pass,Pass,1.0782249822E-003,9.0921510139E-003,Pass,Pass
 Warmup Convergence Information,THERMAL ZONE 11,SizingPeriod: MEXICO CITY ANN HTG 99.6% CONDNS DB,3.1036901444E-014,5.4344433864E-014,Pass,Pass,3.2267300565E-003,2.7369441788E-002,Pass,Pass
 Warmup Convergence Information,THERMAL ZONE 12,SizingPeriod: MEXICO CITY ANN HTG 99.6% CONDNS DB,3.3059974511E-014,5.8395474437E-014,Pass,Pass,3.2260053952E-003,2.7363216529E-002,Pass,Pass
 Warmup Convergence Information,THERMAL ZONE 13,SizingPeriod: MEXICO CITY ANN HTG 99.6% CONDNS DB,3.7476194987E-014,5.2530044933E-014,Pass,Pass,4.1459597403E-003,3.5310356100E-002,Pass,Pass
 Warmup Convergence Information,THERMAL ZONE 14,SizingPeriod: MEXICO CITY ANN HTG 99.6% CONDNS DB,9.5725896345E-015,2.4129402048E-014,Pass,Pass,4.6164572969E-003,3.9412144226E-002,Pass,Pass
 Warmup Convergence Information,THERMAL ZONE 15,SizingPeriod: MEXICO CITY ANN HTG 99.6% CONDNS DB,5.3118003823E-014,5.1164918781E-014,Pass,Pass,3.5392813650E-003,3.0059374599E-002,Pass,Pass
 Warmup Convergence Information,THERMAL ZONE 16,SizingPeriod: MEXICO CITY ANN HTG 99.6% CONDNS DB,3.7377508496E-014,5.2980533453E-014,Pass,Pass,4.1502791491E-003,3.5347921721E-002,Pass,Pass
 Warmup Convergence Information,THERMAL ZONE 2,SizingPeriod: MEXICO CITY ANN HTG 99.6% CONDNS DB,2.1094237468E-014,2.7868047707E-014,Pass,Pass,1.3320318392E-003,1.1236902708E-002,Pass,Pass
 Warmup Convergence Information,THERMAL ZONE 3,SizingPeriod: MEXICO CITY ANN HTG 99.6% CONDNS DB,4.8627768479E-014,5.8431773641E-014,Pass,Pass,3.3943342853E-003,2.8810702014E-002,Pass,Pass
 Warmup Convergence Information,THERMAL ZONE 4,SizingPeriod: MEXICO CITY ANN HTG 99.6% CONDNS DB,1.0288066695E-014,1.9863445100E-014,Pass,Pass,1.0758104342E-003,9.0717760897E-003,Pass,Pass
 Warmup Convergence Information,THERMAL ZONE 5,SizingPeriod: MEXICO CITY ANN HTG 99.6% CONDNS DB,9.6466045029E-015,2.2843298176E-014,Pass,Pass,1.1130120869E-003,9.3859646165E-003,Pass,Pass
 Warmup Convergence Information,THERMAL ZONE 6,SizingPeriod: MEXICO CITY ANN HTG 99.6% CONDNS DB,4.0091387000E-014,5.3410086059E-014,Pass,Pass,1.5903169145E-003,1.3422336631E-002,Pass,Pass
 Warmup Convergence Information,THERMAL ZONE 7,SizingPeriod: MEXICO CITY ANN HTG 99.6% CONDNS DB,6.3159354290E-015,2.0598780954E-014,Pass,Pass,1.5894636895E-003,1.3415111975E-002,Pass,Pass
 Warmup Convergence Information,THERMAL ZONE 8,SizingPeriod: MEXICO CITY ANN HTG 99.6% CONDNS DB,1.4186183092E-014,2.7229414078E-014,Pass,Pass,1.7629636825E-003,1.4885041311E-002,Pass,Pass
 Warmup Convergence Information,THERMAL ZONE 9,SizingPeriod: MEXICO CITY ANN HTG 99.6% CONDNS DB,2.1711028037E-015,2.2198977233E-015,Pass,Pass,1.3371117741E-003,1.1279855608E-002,Pass,Pass
Environment,MEXICO CITY ANN HTG WIND 99.6% CONDNS WS=>MCDB,SizingPeriod:DesignDay,01/21,01/21,WinterDesignDay,1,N/A,N/A,N/A,N/A,N/A,N/A
Environment:Daylight Saving,No,SizingPeriod:DesignDay
Environment:Design Day Data,8.60,0.00,DefaultMultipliers,99726,60,25.7,0.00,No,No
Environment:Design Day Misc, 21,1229.0,0.1415,5.7310E-002,1.0,-11.15,-20.1,ASHRAEClearSky
Environment:WarmupDays,  6
 Warmup Convergence Information,THERMAL ZONE 1,SizingPeriod: MEXICO CITY ANN HTG WIND 99.6% CONDNS WS=>MCDB,7.8653133389E-014,6.0770288630E-014,Pass,Pass,2.9987760467E-003,2.5413649757E-002,Pass,Pass
 Warmup Convergence Information,THERMAL ZONE 10,SizingPeriod: MEXICO CITY ANN HTG WIND 99.6% CONDNS WS=>MCDB,3.7352836873E-014,3.7565703420E-014,Pass,Pass,9.5602833229E-004,8.0604223747E-003,Pass,Pass
 Warmup Convergence Information,THERMAL ZONE 11,SizingPeriod: MEXICO CITY ANN HTG WIND 99.6% CONDNS WS=>MCDB,7.0264781647E-014,5.3296370216E-014,Pass,Pass,2.9101180008E-003,2.4654251491E-002,Pass,Pass
 Warmup Convergence Information,THERMAL ZONE 12,SizingPeriod: MEXICO CITY ANN HTG WIND 99.6% CONDNS WS=>MCDB,6.7180828801E-014,6.2806368417E-014,Pass,Pass,2.9492605692E-003,2.4989428282E-002,Pass,Pass
 Warmup Convergence Information,THERMAL ZONE 13,SizingPeriod: MEXICO CITY ANN HTG WIND 99.6% CONDNS WS=>MCDB,7.0462154630E-014,5.4181310264E-014,Pass,Pass,3.7123897878E-003,3.1553547842E-002,Pass,Pass
 Warmup Convergence Information,THERMAL ZONE 14,SizingPeriod: MEXICO CITY ANN HTG WIND 99.6% CONDNS WS=>MCDB,2.4079503823E-014,3.5786339782E-014,Pass,Pass,4.2022520810E-003,3.5799721768E-002,Pass,Pass
 Warmup Convergence Information,THERMAL ZONE 15,SizingPeriod: MEXICO CITY ANN HTG WIND 99.6% CONDNS WS=>MCDB,6.8019663975E-014,4.9526013667E-014,Pass,Pass,3.3311293913E-003,2.8266861946E-002,Pass,Pass
 Warmup Convergence Information,THERMAL ZONE 16,SizingPeriod: MEXICO CITY ANN HTG WIND 99.6% CONDNS WS=>MCDB,4.6086591333E-014,3.8151360163E-014,Pass,Pass,3.6109525172E-003,3.0677632985E-002,Pass,Pass
 Warmup Convergence Information,THERMAL ZONE 2,SizingPeriod: MEXICO CITY ANN HTG WIND 99.6% CONDNS WS=>MCDB,5.7139478334E-014,4.9347883586E-014,Pass,Pass,1.0617393791E-003,8.9529720596E-003,Pass,Pass
 Warmup Convergence Information,THERMAL ZONE 3,SizingPeriod: MEXICO CITY ANN HTG WIND 99.6% CONDNS WS=>MCDB,6.8414409940E-014,6.2438018541E-014,Pass,Pass,3.0313651920E-003,2.5692963630E-002,Pass,Pass
 Warmup Convergence Information,THERMAL ZONE 4,SizingPeriod: MEXICO CITY ANN HTG WIND 99.6% CONDNS WS=>MCDB,3.5502465165E-014,3.8679683604E-014,Pass,Pass,9.3952928668E-004,7.9211699637E-003,Pass,Pass
 Warmup Convergence Information,THERMAL ZONE 5,SizingPeriod: MEXICO CITY ANN HTG WIND 99.6% CONDNS WS=>MCDB,4.2706579014E-014,3.9657536650E-014,Pass,Pass,9.7054394411E-004,8.1829592955E-003,Pass,Pass
 Warmup Convergence Information,THERMAL ZONE 6,SizingPeriod: MEXICO CITY ANN HTG WIND 99.6% CONDNS WS=>MCDB,6.8981857263E-014,6.0407016098E-014,Pass,Pass,1.3353725982E-003,1.1265155909E-002,Pass,Pass
 Warmup Convergence Information,THERMAL ZONE 7,SizingPeriod: MEXICO CITY ANN HTG WIND 99.6% CONDNS WS=>MCDB,6.8019663975E-014,5.7444645874E-014,Pass,Pass,1.3530229813E-003,1.1414405146E-002,Pass,Pass
 Warmup Convergence Information,THERMAL ZONE 8,SizingPeriod: MEXICO CITY ANN HTG WIND 99.6% CONDNS WS=>MCDB,4.3471399320E-014,3.8546866356E-014,Pass,Pass,1.4063086704E-003,1.1865067857E-002,Pass,Pass
 Warmup Convergence Information,THERMAL ZONE 9,SizingPeriod: MEXICO CITY ANN HTG WIND 99.6% CONDNS WS=>MCDB,4.4063518266E-014,2.9069119011E-014,Pass,Pass,1.0450282433E-003,8.8118545635E-003,Pass,Pass
Environment,MEXICO CITY ANN HUM_N 99.6% CONDNS DP=>MCDB,SizingPeriod:DesignDay,01/21,01/21,WinterDesignDay,1,N/A,N/A,N/A,N/A,N/A,N/A
Environment:Daylight Saving,No,SizingPeriod:DesignDay
Environment:Design Day Data,17.30,0.00,DefaultMultipliers,99726,60,1.7,0.00,No,No
Environment:Design Day Misc, 21,1229.0,0.1415,5.7310E-002,1.0,-11.15,-20.1,ASHRAEClearSky
Environment:WarmupDays,  6
 Warmup Convergence Information,THERMAL ZONE 1,SizingPeriod: MEXICO CITY ANN HUM_N 99.6% CONDNS DP=>MCDB,1.7541523789E-014,7.9354846985E-015,Pass,Pass,1.7505301162E-003,1.4779646855E-002,Pass,Pass
 Warmup Convergence Information,THERMAL ZONE 10,SizingPeriod: MEXICO CITY ANN HUM_N 99.6% CONDNS DP=>MCDB,6.1679056924E-015,5.1786905702E-015,Pass,Pass,7.7195112074E-004,6.5066783296E-003,Pass,Pass
 Warmup Convergence Information,THERMAL ZONE 11,SizingPeriod: MEXICO CITY ANN HUM_N 99.6% CONDNS DP=>MCDB,1.6406629142E-014,1.0509039825E-014,Pass,Pass,2.3232387223E-003,1.9644065105E-002,Pass,Pass
 Warmup Convergence Information,THERMAL ZONE 12,SizingPeriod: MEXICO CITY ANN HUM_N 99.6% CONDNS DP=>MCDB,7.5248449447E-015,8.3370739581E-015,Pass,Pass,2.3235167406E-003,1.9646432438E-002,Pass,Pass
 Warmup Convergence Information,THERMAL ZONE 13,SizingPeriod: MEXICO CITY ANN HUM_N 99.6% CONDNS DP=>MCDB,8.9311274425E-015,7.9769884626E-015,Pass,Pass,2.6657679047E-003,2.2564694978E-002,Pass,Pass
 Warmup Convergence Information,THERMAL ZONE 14,SizingPeriod: MEXICO CITY ANN HUM_N 99.6% CONDNS DP=>MCDB,6.8587111299E-015,6.4409475580E-015,Pass,Pass,2.7444309758E-003,2.3236810733E-002,Pass,Pass
 Warmup Convergence Information,THERMAL ZONE 15,SizingPeriod: MEXICO CITY ANN HUM_N 99.6% CONDNS DP=>MCDB,8.7584260832E-015,7.4300098345E-015,Pass,Pass,2.3567942968E-003,1.9929855407E-002,Pass,Pass
 Warmup Convergence Information,THERMAL ZONE 16,SizingPeriod: MEXICO CITY ANN HUM_N 99.6% CONDNS DP=>MCDB,1.5493779099E-014,1.3603352011E-014,Pass,Pass,2.0452024044E-003,1.7279959946E-002,Pass,Pass
 Warmup Convergence Information,THERMAL ZONE 2,SizingPeriod: MEXICO CITY ANN HUM_N 99.6% CONDNS DP=>MCDB,9.1038288019E-015,8.4334737853E-015,Pass,Pass,4.8536426901E-004,4.0903339221E-003,Pass,Pass
 Warmup Convergence Information,THERMAL ZONE 3,SizingPeriod: MEXICO CITY ANN HUM_N 99.6% CONDNS DP=>MCDB,1.9712626593E-014,5.8291375328E-015,Pass,Pass,1.8053249189E-003,1.5244191284E-002,Pass,Pass
 Warmup Convergence Information,THERMAL ZONE 4,SizingPeriod: MEXICO CITY ANN HUM_N 99.6% CONDNS DP=>MCDB,1.4605600680E-014,1.1924334087E-014,Pass,Pass,6.6578170982E-004,5.6113879147E-003,Pass,Pass
 Warmup Convergence Information,THERMAL ZONE 5,SizingPeriod: MEXICO CITY ANN HUM_N 99.6% CONDNS DP=>MCDB,8.4870382327E-015,7.4441281448E-015,Pass,Pass,7.5187832702E-004,6.3374123032E-003,Pass,Pass
 Warmup Convergence Information,THERMAL ZONE 6,SizingPeriod: MEXICO CITY ANN HUM_N 99.6% CONDNS DP=>MCDB,1.2508512744E-014,9.2488974700E-015,Pass,Pass,8.6732451661E-004,7.3117170651E-003,Pass,Pass
 Warmup Convergence Information,THERMAL ZONE 7,SizingPeriod: MEXICO CITY ANN HUM_N 99.6% CONDNS DP=>MCDB,1.5222391249E-014,1.0115214898E-014,Pass,Pass,8.6754366467E-004,7.3135666819E-003,Pass,Pass
 Warmup Convergence Information,THERMAL ZONE 8,SizingPeriod: MEXICO CITY ANN HUM_N 99.6% CONDNS DP=>MCDB,2.0600805012E-014,1.3871135841E-014,Pass,Pass,7.7604084091E-004,6.5415339612E-003,Pass,Pass
 Warmup Convergence Information,THERMAL ZONE 9,SizingPeriod: MEXICO CITY ANN HUM_N 99.6% CONDNS DP=>MCDB,1.0115365335E-014,1.0241428053E-014,Pass,Pass,4.9322306155E-004,4.1565725933E-003,Pass,Pass
Environment,PIACENZA ANN CLG .4% CONDNS DB=>MWB,SizingPeriod:DesignDay,08/21,08/21,SummerDesignDay,1,N/A,N/A,N/A,N/A,N/A,N/A
Environment:Daylight Saving,No,SizingPeriod:DesignDay
Environment:Design Day Data,33.10,11.90,DefaultMultipliers,99726,90,2.3,0.00,No,No
Environment:Design Day Misc,233,1106.3,0.2000,0.1216,1.0,-3.33,12.4,ASHRAETau
Environment:WarmupDays,  6
 Warmup Convergence Information,THERMAL ZONE 1,SizingPeriod: PIACENZA ANN CLG .4% CONDNS DB=>MWB,2.1580853213E-002,2.8408908931E-002,Pass,Pass,2.9940036266E-002,9.9472547880E-002,Pass,Pass
 Warmup Convergence Information,THERMAL ZONE 10,SizingPeriod: PIACENZA ANN CLG .4% CONDNS DB=>MWB,4.3347359574E-002,0.2735489165,Pass,Pass,0.1253856878,0.7011684020,Pass,Pass
 Warmup Convergence Information,THERMAL ZONE 11,SizingPeriod: PIACENZA ANN CLG .4% CONDNS DB=>MWB,3.7884574979E-002,0.2859147997,Pass,Pass,1.4271785513E-002,5.8356751325E-002,Pass,Pass
 Warmup Convergence Information,THERMAL ZONE 12,SizingPeriod: PIACENZA ANN CLG .4% CONDNS DB=>MWB,4.2773643147E-002,0.2197326141,Pass,Pass,7.0862168136E-002,0.2231506598,Pass,Pass
 Warmup Convergence Information,THERMAL ZONE 13,SizingPeriod: PIACENZA ANN CLG .4% CONDNS DB=>MWB,4.0193947729E-002,0.2744985298,Pass,Pass,4.0898279696E-002,0.1707823732,Pass,Pass
 Warmup Convergence Information,THERMAL ZONE 14,SizingPeriod: PIACENZA ANN CLG .4% CONDNS DB=>MWB,3.7500000000E-002,0.2911176939,Pass,Pass,1.5872391579E-002,7.0274686383E-002,Pass,Pass
 Warmup Convergence Information,THERMAL ZONE 15,SizingPeriod: PIACENZA ANN CLG .4% CONDNS DB=>MWB,4.1321608605E-002,0.2048402564,Pass,Pass,2.4814354894E-002,0.1130223471,Pass,Pass
 Warmup Convergence Information,THERMAL ZONE 16,SizingPeriod: PIACENZA ANN CLG .4% CONDNS DB=>MWB,3.9305011010E-002,0.1731035894,Pass,Pass,4.6736271083E-002,0.1591084212,Pass,Pass
 Warmup Convergence Information,THERMAL ZONE 2,SizingPeriod: PIACENZA ANN CLG .4% CONDNS DB=>MWB,1.3429700739E-002,5.7796398024E-002,Pass,Pass,2.1775647603E-002,7.1286254374E-002,Pass,Pass
 Warmup Convergence Information,THERMAL ZONE 3,SizingPeriod: PIACENZA ANN CLG .4% CONDNS DB=>MWB,3.8472906800E-002,0.2842464125,Pass,Pass,1.6829708711E-002,5.9649373360E-002,Pass,Pass
 Warmup Convergence Information,THERMAL ZONE 4,SizingPeriod: PIACENZA ANN CLG .4% CONDNS DB=>MWB,2.8209226699E-002,0.1688084451,Pass,Pass,2.8401156076E-002,0.1362420943,Pass,Pass
 Warmup Convergence Information,THERMAL ZONE 5,SizingPeriod: PIACENZA ANN CLG .4% CONDNS DB=>MWB,3.4097215092E-002,0.2104212487,Pass,Pass,2.7074526559E-002,0.1291034446,Pass,Pass
 Warmup Convergence Information,THERMAL ZONE 6,SizingPeriod: PIACENZA ANN CLG .4% CONDNS DB=>MWB,3.8379017040E-002,0.2786487842,Pass,Pass,2.7842901535E-002,0.1521590579,Pass,Pass
 Warmup Convergence Information,THERMAL ZONE 7,SizingPeriod: PIACENZA ANN CLG .4% CONDNS DB=>MWB,1.0136236348E-002,1.6072612097E-002,Pass,Pass,3.4077817252E-002,9.5997142719E-002,Pass,Pass
 Warmup Convergence Information,THERMAL ZONE 8,SizingPeriod: PIACENZA ANN CLG .4% CONDNS DB=>MWB,3.8915559763E-002,0.2375922787,Pass,Pass,2.0291547383E-002,8.1123172329E-002,Pass,Pass
 Warmup Convergence Information,THERMAL ZONE 9,SizingPeriod: PIACENZA ANN CLG .4% CONDNS DB=>MWB,3.7500000000E-002,0.2871015815,Pass,Pass,2.0499312806E-002,9.2977813613E-002,Pass,Pass
Environment,PIACENZA ANN CLG .4% CONDNS DP=>MDB,SizingPeriod:DesignDay,08/21,08/21,SummerDesignDay,1,N/A,N/A,N/A,N/A,N/A,N/A
Environment:Daylight Saving,No,SizingPeriod:DesignDay
Environment:Design Day Data,27.40,11.90,DefaultMultipliers,99726,90,2.3,0.00,No,No
Environment:Design Day Misc,233,1106.3,0.2000,0.1216,1.0,-3.33,12.4,ASHRAETau
Environment:WarmupDays,  6
 Warmup Convergence Information,THERMAL ZONE 1,SizingPeriod: PIACENZA ANN CLG .4% CONDNS DP=>MDB,5.0038333660E-002,3.5071020836E-002,Pass,Pass,5.2308236487E-002,0.3144388896,Pass,Pass
 Warmup Convergence Information,THERMAL ZONE 10,SizingPeriod: PIACENZA ANN CLG .4% CONDNS DP=>MDB,2.0919549112E-002,9.5187595037E-002,Pass,Pass,3.5737590532E-002,0.2049549685,Pass,Pass
 Warmup Convergence Information,THERMAL ZONE 11,SizingPeriod: PIACENZA ANN CLG .4% CONDNS DP=>MDB,3.8299460251E-002,0.2801896602,Pass,Pass,3.0361789725E-002,0.1351158102,Pass,Pass
 Warmup Convergence Information,THERMAL ZONE 12,SizingPeriod: PIACENZA ANN CLG .4% CONDNS DP=>MDB,2.5217186180E-002,3.7254441239E-002,Pass,Pass,2.7958435352E-002,9.1707137552E-002,Pass,Pass
 Warmup Convergence Information,THERMAL ZONE 13,SizingPeriod: PIACENZA ANN CLG .4% CONDNS DP=>MDB,4.1828340831E-002,0.2717324992,Pass,Pass,0.1682394689,1.3959942526,Pass,Pass
 Warmup Convergence Information,THERMAL ZONE 14,SizingPeriod: PIACENZA ANN CLG .4% CONDNS DP=>MDB,3.8042042302E-002,0.2937806731,Pass,Pass,1.7970522847E-002,5.5718553229E-002,Pass,Pass
 Warmup Convergence Information,THERMAL ZONE 15,SizingPeriod: PIACENZA ANN CLG .4% CONDNS DP=>MDB,2.2011541708E-002,3.6669792894E-002,Pass,Pass,2.4432313809E-002,7.4170931680E-002,Pass,Pass
 Warmup Convergence Information,THERMAL ZONE 16,SizingPeriod: PIACENZA ANN CLG .4% CONDNS DP=>MDB,3.2602072053E-002,7.5957463181E-002,Pass,Pass,3.3533932738E-002,6.7208935854E-002,Pass,Pass
 Warmup Convergence Information,THERMAL ZONE 2,SizingPeriod: PIACENZA ANN CLG .4% CONDNS DP=>MDB,1.1118537351E-002,1.7817905428E-002,Pass,Pass,2.9151816285E-002,8.6502002941E-002,Pass,Pass
 Warmup Convergence Information,THERMAL ZONE 3,SizingPeriod: PIACENZA ANN CLG .4% CONDNS DP=>MDB,3.9016808584E-002,0.2780917416,Pass,Pass,4.1066543866E-002,0.1918913470,Pass,Pass
 Warmup Convergence Information,THERMAL ZONE 4,SizingPeriod: PIACENZA ANN CLG .4% CONDNS DP=>MDB,5.7786478382E-003,1.3491690021E-002,Pass,Pass,2.8368652739E-002,7.1531242774E-002,Pass,Pass
 Warmup Convergence Information,THERMAL ZONE 5,SizingPeriod: PIACENZA ANN CLG .4% CONDNS DP=>MDB,1.0045849736E-002,3.1384610739E-002,Pass,Pass,3.2144735365E-002,0.1285267211,Pass,Pass
 Warmup Convergence Information,THERMAL ZONE 6,SizingPeriod: PIACENZA ANN CLG .4% CONDNS DP=>MDB,3.8853823881E-002,0.2692233934,Pass,Pass,6.2502948466E-002,0.3680317084,Pass,Pass
 Warmup Convergence Information,THERMAL ZONE 7,SizingPeriod: PIACENZA ANN CLG .4% CONDNS DP=>MDB,3.5890073516E-002,2.8829947855E-002,Pass,Pass,3.3228288946E-002,0.1386179387,Pass,Pass
 Warmup Convergence Information,THERMAL ZONE 8,SizingPeriod: PIACENZA ANN CLG .4% CONDNS DP=>MDB,2.3174474599E-002,0.1286759961,Pass,Pass,3.4749502957E-002,0.1798589633,Pass,Pass
 Warmup Convergence Information,THERMAL ZONE 9,SizingPeriod: PIACENZA ANN CLG .4% CONDNS DP=>MDB,3.8513769816E-002,0.2908800336,Pass,Pass,2.2265356317E-002,6.9027889137E-002,Pass,Pass
Environment,PIACENZA ANN CLG .4% CONDNS ENTH=>MDB,SizingPeriod:DesignDay,08/21,08/21,SummerDesignDay,1,N/A,N/A,N/A,N/A,N/A,N/A
Environment:Daylight Saving,No,SizingPeriod:DesignDay
Environment:Design Day Data,30.30,11.90,DefaultMultipliers,99726,90,2.3,0.00,No,No
[...]
Environment:Design Day Data,27.50,11.50,DefaultMultipliers,100094,140,3.0,0.00,No,No
Environment:Design Day Misc,202,1084.4,0.2082,0.1365,1.0,-6.23,20.6,ASHRAETau
Environment:WarmupDays,  6
 Warmup Convergence Information,THERMAL ZONE 1,SizingPeriod: YAKUTSK ANN CLG .4% CONDNS ENTH=>MDB,4.5386280234E-002,3.4460001050E-002,Pass,Pass,3.2990747640E-002,0.1309467361,Pass,Pass
 Warmup Convergence Information,THERMAL ZONE 10,SizingPeriod: YAKUTSK ANN CLG .4% CONDNS ENTH=>MDB,2.1550952625E-002,0.1033842441,Pass,Pass,3.5099543143E-002,0.2106169817,Pass,Pass
 Warmup Convergence Information,THERMAL ZONE 11,SizingPeriod: YAKUTSK ANN CLG .4% CONDNS ENTH=>MDB,3.8230144926E-002,0.2802944947,Pass,Pass,2.9005185392E-002,0.1259486988,Pass,Pass
 Warmup Convergence Information,THERMAL ZONE 12,SizingPeriod: YAKUTSK ANN CLG .4% CONDNS ENTH=>MDB,2.3485740590E-002,3.8881082107E-002,Pass,Pass,2.8664616769E-002,9.3803100537E-002,Pass,Pass
 Warmup Convergence Information,THERMAL ZONE 13,SizingPeriod: YAKUTSK ANN CLG .4% CONDNS ENTH=>MDB,4.1472181250E-002,0.2711816596,Pass,Pass,6.9021472862E-002,0.3394340791,Pass,Pass
 Warmup Convergence Information,THERMAL ZONE 14,SizingPeriod: YAKUTSK ANN CLG .4% CONDNS ENTH=>MDB,3.7884713364E-002,0.2932968186,Pass,Pass,1.7541353825E-002,5.5261983925E-002,Pass,Pass
 Warmup Convergence Information,THERMAL ZONE 15,SizingPeriod: YAKUTSK ANN CLG .4% CONDNS ENTH=>MDB,2.0443325504E-002,3.7414468558E-002,Pass,Pass,2.7307450052E-002,7.9920734959E-002,Pass,Pass
 Warmup Convergence Information,THERMAL ZONE 16,SizingPeriod: YAKUTSK ANN CLG .4% CONDNS ENTH=>MDB,3.0685589537E-002,7.6205625269E-002,Pass,Pass,3.2164830437E-002,6.2753668761E-002,Pass,Pass
 Warmup Convergence Information,THERMAL ZONE 2,SizingPeriod: YAKUTSK ANN CLG .4% CONDNS ENTH=>MDB,1.0067936159E-002,1.6671192571E-002,Pass,Pass,2.8228158125E-002,8.8528323668E-002,Pass,Pass
 Warmup Convergence Information,THERMAL ZONE 3,SizingPeriod: YAKUTSK ANN CLG .4% CONDNS ENTH=>MDB,3.8828657510E-002,0.2780498797,Pass,Pass,3.9103606695E-002,0.1570536676,Pass,Pass
 Warmup Convergence Information,THERMAL ZONE 4,SizingPeriod: YAKUTSK ANN CLG .4% CONDNS ENTH=>MDB,5.4262030554E-003,1.3238088764E-002,Pass,Pass,2.4237533766E-002,8.5660368690E-002,Pass,Pass
 Warmup Convergence Information,THERMAL ZONE 5,SizingPeriod: YAKUTSK ANN CLG .4% CONDNS ENTH=>MDB,1.0398105894E-002,3.6436174752E-002,Pass,Pass,4.2953072341E-002,0.2140273680,Pass,Pass
 Warmup Convergence Information,THERMAL ZONE 6,SizingPeriod: YAKUTSK ANN CLG .4% CONDNS ENTH=>MDB,3.8685344964E-002,0.2687501420,Pass,Pass,5.5886348752E-002,0.3059786568,Pass,Pass
 Warmup Convergence Information,THERMAL ZONE 7,SizingPeriod: YAKUTSK ANN CLG .4% CONDNS ENTH=>MDB,3.3476675500E-002,2.7129918390E-002,Pass,Pass,4.3775710687E-002,0.1933710752,Pass,Pass
 Warmup Convergence Information,THERMAL ZONE 8,SizingPeriod: YAKUTSK ANN CLG .4% CONDNS ENTH=>MDB,2.8192753684E-002,0.1593691980,Pass,Pass,6.3417551031E-002,0.3964085540,Pass,Pass
 Warmup Convergence Information,THERMAL ZONE 9,SizingPeriod: YAKUTSK ANN CLG .4% CONDNS ENTH=>MDB,3.8352222860E-002,0.2903055136,Pass,Pass,2.2136427867E-002,6.9181978247E-002,Pass,Pass
Environment,YAKUTSK ANN CLG .4% CONDNS WB=>MDB,SizingPeriod:DesignDay,07/21,07/21,SummerDesignDay,1,N/A,N/A,N/A,N/A,N/A,N/A
Environment:Daylight Saving,No,SizingPeriod:DesignDay
Environment:Design Day Data,27.40,11.50,DefaultMultipliers,100094,140,3.0,0.00,No,No
Environment:Design Day Misc,202,1084.4,0.2082,0.1365,1.0,-6.23,20.6,ASHRAETau
Environment:WarmupDays,  6
 Warmup Convergence Information,THERMAL ZONE 1,SizingPeriod: YAKUTSK ANN CLG .4% CONDNS WB=>MDB,4.6255856371E-002,3.4087909117E-002,Pass,Pass,5.4259581189E-002,0.3284476575,Pass,Pass
 Warmup Convergence Information,THERMAL ZONE 10,SizingPeriod: YAKUTSK ANN CLG .4% CONDNS WB=>MDB,2.0742042206E-002,9.7705012295E-002,Pass,Pass,3.4771343193E-002,0.2058880505,Pass,Pass
 Warmup Convergence Information,THERMAL ZONE 11,SizingPeriod: YAKUTSK ANN CLG .4% CONDNS WB=>MDB,3.8241294488E-002,0.2800639783,Pass,Pass,2.9485479274E-002,0.1290078016,Pass,Pass
 Warmup Convergence Information,THERMAL ZONE 12,SizingPeriod: YAKUTSK ANN CLG .4% CONDNS WB=>MDB,2.3670461580E-002,3.7920153498E-002,Pass,Pass,2.7143886670E-002,7.3158160587E-002,Pass,Pass
 Warmup Convergence Information,THERMAL ZONE 13,SizingPeriod: YAKUTSK ANN CLG .4% CONDNS WB=>MDB,4.1510560227E-002,0.2710069703,Pass,Pass,7.2156686856E-002,0.3652693771,Pass,Pass
 Warmup Convergence Information,THERMAL ZONE 14,SizingPeriod: YAKUTSK ANN CLG .4% CONDNS WB=>MDB,3.7916859913E-002,0.2933677736,Pass,Pass,1.7555042714E-002,5.5188135069E-002,Pass,Pass
 Warmup Convergence Information,THERMAL ZONE 15,SizingPeriod: YAKUTSK ANN CLG .4% CONDNS WB=>MDB,2.0620177042E-002,3.6709447674E-002,Pass,Pass,2.4324681587E-002,6.4330752143E-002,Pass,Pass
 Warmup Convergence Information,THERMAL ZONE 16,SizingPeriod: YAKUTSK ANN CLG .4% CONDNS WB=>MDB,3.0872097287E-002,7.6243394313E-002,Pass,Pass,3.2599098664E-002,7.3255610618E-002,Pass,Pass
 Warmup Convergence Information,THERMAL ZONE 2,SizingPeriod: YAKUTSK ANN CLG .4% CONDNS WB=>MDB,1.0204842507E-002,1.6511762966E-002,Pass,Pass,2.7613590783E-002,6.0453008230E-002,Pass,Pass
 Warmup Convergence Information,THERMAL ZONE 3,SizingPeriod: YAKUTSK ANN CLG .4% CONDNS WB=>MDB,3.8848490726E-002,0.2778425427,Pass,Pass,3.9852213896E-002,0.1659444555,Pass,Pass
 Warmup Convergence Information,THERMAL ZONE 4,SizingPeriod: YAKUTSK ANN CLG .4% CONDNS WB=>MDB,5.2005901183E-003,1.2230026049E-002,Pass,Pass,2.4628280766E-002,7.1661272248E-002,Pass,Pass
 Warmup Convergence Information,THERMAL ZONE 5,SizingPeriod: YAKUTSK ANN CLG .4% CONDNS WB=>MDB,9.6446164591E-003,3.1716263742E-002,Pass,Pass,3.4349547221E-002,0.1485995718,Pass,Pass
 Warmup Convergence Information,THERMAL ZONE 6,SizingPeriod: YAKUTSK ANN CLG .4% CONDNS WB=>MDB,3.8694440897E-002,0.2683838451,Pass,Pass,6.1822545103E-002,0.3639816350,Pass,Pass
 Warmup Convergence Information,THERMAL ZONE 7,SizingPeriod: YAKUTSK ANN CLG .4% CONDNS WB=>MDB,3.4179487303E-002,2.7163965505E-002,Pass,Pass,3.6820916188E-002,0.1445475702,Pass,Pass
 Warmup Convergence Information,THERMAL ZONE 8,SizingPeriod: YAKUTSK ANN CLG .4% CONDNS WB=>MDB,2.7717832158E-002,0.1564413092,Pass,Pass,5.9348824675E-002,0.3551118599,Pass,Pass
 Warmup Convergence Information,THERMAL ZONE 9,SizingPeriod: YAKUTSK ANN CLG .4% CONDNS WB=>MDB,3.8382274178E-002,0.2903785260,Pass,Pass,2.2127322769E-002,6.8978126095E-002,Pass,Pass
Environment,YAKUTSK ANN HTG 99.6% CONDNS DB,SizingPeriod:DesignDay,01/21,01/21,WinterDesignDay,1,N/A,N/A,N/A,N/A,N/A,N/A
Environment:Daylight Saving,No,SizingPeriod:DesignDay
Environment:Design Day Data,-50.80,0.00,DefaultMultipliers,100094,330,0.6,0.00,No,No
Environment:Design Day Misc, 21,1229.0,0.1415,5.7310E-002,1.0,-11.15,-20.1,ASHRAEClearSky
Environment:WarmupDays,  6
 Warmup Convergence Information,THERMAL ZONE 1,SizingPeriod: YAKUTSK ANN HTG 99.6% CONDNS DB,2.4178190314E-015,2.3180824463E-015,Pass,Pass,4.4075260705E-003,3.7587383568E-002,Pass,Pass
 Warmup Convergence Information,THERMAL ZONE 10,SizingPeriod: YAKUTSK ANN HTG 99.6% CONDNS DB,2.8865798640E-015,2.6136786932E-015,Pass,Pass,1.3489747091E-003,1.1380176249E-002,Pass,Pass
 Warmup Convergence Information,THERMAL ZONE 11,SizingPeriod: YAKUTSK ANN HTG 99.6% CONDNS DB,2.3931474086E-015,2.3247686692E-015,Pass,Pass,3.9437571359E-003,3.3555685153E-002,Pass,Pass
 Warmup Convergence Information,THERMAL ZONE 12,SizingPeriod: YAKUTSK ANN HTG 99.6% CONDNS DB,2.5905203908E-015,2.5543173394E-015,Pass,Pass,3.9515981068E-003,3.3623640949E-002,Pass,Pass
 Warmup Convergence Information,THERMAL ZONE 13,SizingPeriod: YAKUTSK ANN HTG 99.6% CONDNS DB,2.0970879354E-015,1.9821925491E-015,Pass,Pass,5.3930218511E-003,4.6243952308E-002,Pass,Pass
 Warmup Convergence Information,THERMAL ZONE 14,SizingPeriod: YAKUTSK ANN HTG 99.6% CONDNS DB,3.3553406966E-015,5.9914973670E-015,Pass,Pass,6.1599086378E-003,5.3071857499E-002,Pass,Pass
 Warmup Convergence Information,THERMAL ZONE 15,SizingPeriod: YAKUTSK ANN HTG 99.6% CONDNS DB,2.7632217502E-015,2.4572738112E-015,Pass,Pass,4.3535101010E-003,3.7116487158E-002,Pass,Pass
 Warmup Convergence Information,THERMAL ZONE 16,SizingPeriod: YAKUTSK ANN HTG 99.6% CONDNS DB,2.0477446899E-015,2.2383294915E-015,Pass,Pass,5.9342828059E-003,5.1054310148E-002,Pass,Pass
 Warmup Convergence Information,THERMAL ZONE 2,SizingPeriod: YAKUTSK ANN HTG 99.6% CONDNS DB,2.7138785046E-015,2.6142608432E-015,Pass,Pass,2.4683715236E-003,2.0880687562E-002,Pass,Pass
 Warmup Convergence Information,THERMAL ZONE 3,SizingPeriod: YAKUTSK ANN HTG 99.6% CONDNS DB,2.6398636363E-015,2.3216246101E-015,Pass,Pass,4.4772553038E-003,3.8195790777E-002,Pass,Pass
 Warmup Convergence Information,THERMAL ZONE 4,SizingPeriod: YAKUTSK ANN HTG 99.6% CONDNS DB,2.8619082413E-015,2.5904029042E-015,Pass,Pass,1.3866747794E-003,1.1699005568E-002,Pass,Pass
 Warmup Convergence Information,THERMAL ZONE 5,SizingPeriod: YAKUTSK ANN HTG 99.6% CONDNS DB,2.3931474086E-015,2.5752021919E-015,Pass,Pass,1.4021890119E-003,1.1830225870E-002,Pass,Pass
 Warmup Convergence Information,THERMAL ZONE 6,SizingPeriod: YAKUTSK ANN HTG 99.6% CONDNS DB,2.3931474086E-015,2.2480979780E-015,Pass,Pass,2.1685145421E-003,1.8327923787E-002,Pass,Pass
 Warmup Convergence Information,THERMAL ZONE 7,SizingPeriod: YAKUTSK ANN HTG 99.6% CONDNS DB,2.5658487680E-015,2.5276074517E-015,Pass,Pass,2.1736466984E-003,1.8371560832E-002,Pass,Pass
 Warmup Convergence Information,THERMAL ZONE 8,SizingPeriod: YAKUTSK ANN HTG 99.6% CONDNS DB,2.6645352591E-015,2.3869077820E-015,Pass,Pass,2.8400755131E-003,2.4054833121E-002,Pass,Pass
 Warmup Convergence Information,THERMAL ZONE 9,SizingPeriod: YAKUTSK ANN HTG 99.6% CONDNS DB,4.6135934579E-015,1.1219676459E-014,Pass,Pass,2.5023858925E-003,2.1170685806E-002,Pass,Pass
Environment,YAKUTSK ANN HTG WIND 99.6% CONDNS WS=>MCDB,SizingPeriod:DesignDay,01/21,01/21,WinterDesignDay,1,N/A,N/A,N/A,N/A,N/A,N/A
Environment:Daylight Saving,No,SizingPeriod:DesignDay
Environment:Design Day Data,-34.20,0.00,DefaultMultipliers,100094,330,5.2,0.00,No,No
Environment:Design Day Misc, 21,1229.0,0.1415,5.7310E-002,1.0,-11.15,-20.1,ASHRAEClearSky
Environment:WarmupDays,  6
 Warmup Convergence Information,THERMAL ZONE 1,SizingPeriod: YAKUTSK ANN HTG WIND 99.6% CONDNS WS=>MCDB,2.3191325403E-015,2.2671060106E-015,Pass,Pass,4.0092716401E-003,3.4123706586E-002,Pass,Pass
 Warmup Convergence Information,THERMAL ZONE 10,SizingPeriod: YAKUTSK ANN HTG WIND 99.6% CONDNS WS=>MCDB,2.8865798640E-015,2.5457241532E-015,Pass,Pass,1.1953233256E-003,1.0081386226E-002,Pass,Pass
 Warmup Convergence Information,THERMAL ZONE 11,SizingPeriod: YAKUTSK ANN HTG WIND 99.6% CONDNS WS=>MCDB,2.2451176720E-015,2.2835582775E-015,Pass,Pass,3.5096006070E-003,2.9803523728E-002,Pass,Pass
 Warmup Convergence Information,THERMAL ZONE 12,SizingPeriod: YAKUTSK ANN HTG WIND 99.6% CONDNS WS=>MCDB,2.4671622769E-015,2.1462893853E-015,Pass,Pass,3.4731379658E-003,2.9489314351E-002,Pass,Pass
 Warmup Convergence Information,THERMAL ZONE 13,SizingPeriod: YAKUTSK ANN HTG WIND 99.6% CONDNS WS=>MCDB,2.4424906542E-015,2.3111135222E-015,Pass,Pass,4.6113235252E-003,3.9367265101E-002,Pass,Pass
 Warmup Convergence Information,THERMAL ZONE 14,SizingPeriod: YAKUTSK ANN HTG WIND 99.6% CONDNS WS=>MCDB,1.6233927782E-014,3.1409252934E-014,Pass,Pass,5.3329272353E-003,4.5712400595E-002,Pass,Pass
 Warmup Convergence Information,THERMAL ZONE 15,SizingPeriod: YAKUTSK ANN HTG WIND 99.6% CONDNS WS=>MCDB,2.9852663551E-015,4.4243449898E-015,Pass,Pass,3.9967231223E-003,3.4014871220E-002,Pass,Pass
 Warmup Convergence Information,THERMAL ZONE 16,SizingPeriod: YAKUTSK ANN HTG WIND 99.6% CONDNS WS=>MCDB,2.2944609176E-015,2.4222206717E-015,Pass,Pass,5.0751642817E-003,4.3437966723E-002,Pass,Pass
 Warmup Convergence Information,THERMAL ZONE 2,SizingPeriod: YAKUTSK ANN HTG WIND 99.6% CONDNS WS=>MCDB,1.0534782923E-014,2.0649647156E-014,Pass,Pass,2.0460431142E-003,1.7287118505E-002,Pass,Pass
 Warmup Convergence Information,THERMAL ZONE 3,SizingPeriod: YAKUTSK ANN HTG WIND 99.6% CONDNS WS=>MCDB,2.3438041631E-015,2.2610569784E-015,Pass,Pass,4.0239004743E-003,3.4250606776E-002,Pass,Pass
 Warmup Convergence Information,THERMAL ZONE 4,SizingPeriod: YAKUTSK ANN HTG WIND 99.6% CONDNS WS=>MCDB,2.3684757859E-015,2.1755839288E-015,Pass,Pass,1.2368506795E-003,1.0432315775E-002,Pass,Pass
 Warmup Convergence Information,THERMAL ZONE 5,SizingPeriod: YAKUTSK ANN HTG WIND 99.6% CONDNS WS=>MCDB,5.2057124044E-015,1.7881174543E-014,Pass,Pass,1.2435667717E-003,1.0489075975E-002,Pass,Pass
 Warmup Convergence Information,THERMAL ZONE 6,SizingPeriod: YAKUTSK ANN HTG WIND 99.6% CONDNS WS=>MCDB,2.5411771453E-015,2.7025282518E-015,Pass,Pass,1.8783611654E-003,1.5863672417E-002,Pass,Pass
 Warmup Convergence Information,THERMAL ZONE 7,SizingPeriod: YAKUTSK ANN HTG WIND 99.6% CONDNS WS=>MCDB,2.2697892948E-015,2.3165064127E-015,Pass,Pass,1.8567563046E-003,1.5680395996E-002,Pass,Pass
 Warmup Convergence Information,THERMAL ZONE 8,SizingPeriod: YAKUTSK ANN HTG WIND 99.6% CONDNS WS=>MCDB,2.5165055225E-015,2.6105328401E-015,Pass,Pass,2.2640098651E-003,1.9140194820E-002,Pass,Pass
 Warmup Convergence Information,THERMAL ZONE 9,SizingPeriod: YAKUTSK ANN HTG WIND 99.6% CONDNS WS=>MCDB,2.5954547153E-014,2.6590287111E-014,Pass,Pass,1.9562023485E-003,1.6524244608E-002,Pass,Pass
Environment,YAKUTSK ANN HUM_N 99.6% CONDNS DP=>MCDB,SizingPeriod:DesignDay,01/21,01/21,WinterDesignDay,1,N/A,N/A,N/A,N/A,N/A,N/A
Environment:Daylight Saving,No,SizingPeriod:DesignDay
Environment:Design Day Data,-50.40,0.00,DefaultMultipliers,100094,330,0.6,0.00,No,No
Environment:Design Day Misc, 21,1229.0,0.1415,5.7310E-002,1.0,-11.15,-20.1,ASHRAEClearSky
Environment:WarmupDays,  6
 Warmup Convergence Information,THERMAL ZONE 1,SizingPeriod: YAKUTSK ANN HUM_N 99.6% CONDNS DP=>MCDB,1.1987941504E-013,5.4686514870E-014,Pass,Pass,4.4001136257E-003,3.7522742899E-002,Pass,Pass
 Warmup Convergence Information,THERMAL ZONE 10,SizingPeriod: YAKUTSK ANN HUM_N 99.6% CONDNS DP=>MCDB,9.5824582837E-014,4.6987622118E-015,Pass,Pass,1.3470136477E-003,1.1363593223E-002,Pass,Pass
 Warmup Convergence Information,THERMAL ZONE 11,SizingPeriod: YAKUTSK ANN HUM_N 99.6% CONDNS DP=>MCDB,6.2147817756E-014,8.2582017220E-014,Pass,Pass,3.9371510466E-003,3.3498436842E-002,Pass,Pass
 Warmup Convergence Information,THERMAL ZONE 12,SizingPeriod: YAKUTSK ANN HUM_N 99.6% CONDNS DP=>MCDB,6.1679056924E-014,8.2685558843E-014,Pass,Pass,3.9449767271E-003,3.3566254244E-002,Pass,Pass
 Warmup Convergence Information,THERMAL ZONE 13,SizingPeriod: YAKUTSK ANN HUM_N 99.6% CONDNS DP=>MCDB,5.6399329651E-014,5.2583488009E-014,Pass,Pass,5.3809819156E-003,4.6137415004E-002,Pass,Pass
 Warmup Convergence Information,THERMAL ZONE 14,SizingPeriod: YAKUTSK ANN HUM_N 99.6% CONDNS DP=>MCDB,1.0021613169E-013,1.7083811698E-014,Pass,Pass,6.1451218316E-003,5.2939407111E-002,Pass,Pass
 Warmup Convergence Information,THERMAL ZONE 15,SizingPeriod: YAKUTSK ANN HUM_N 99.6% CONDNS DP=>MCDB,5.9137879778E-014,5.6559709997E-014,Pass,Pass,4.3464395515E-003,3.7054874344E-002,Pass,Pass
 Warmup Convergence Information,THERMAL ZONE 16,SizingPeriod: YAKUTSK ANN HUM_N 99.6% CONDNS DP=>MCDB,5.5412464740E-014,5.1611784727E-014,Pass,Pass,5.9212392520E-003,5.0937899388E-002,Pass,Pass
 Warmup Convergence Information,THERMAL ZONE 2,SizingPeriod: YAKUTSK ANN HUM_N 99.6% CONDNS DP=>MCDB,5.9458610874E-014,5.4104593104E-015,Pass,Pass,2.4613764540E-003,2.0821060234E-002,Pass,Pass
 Warmup Convergence Information,THERMAL ZONE 3,SizingPeriod: YAKUTSK ANN HUM_N 99.6% CONDNS DP=>MCDB,1.1950934070E-013,5.4538640859E-014,Pass,Pass,4.4699656336E-003,3.8132158290E-002,Pass,Pass
 Warmup Convergence Information,THERMAL ZONE 4,SizingPeriod: YAKUTSK ANN HUM_N 99.6% CONDNS DP=>MCDB,9.5873926082E-014,4.9714391217E-015,Pass,Pass,1.3847112424E-003,1.1682398327E-002,Pass,Pass
 Warmup Convergence Information,THERMAL ZONE 5,SizingPeriod: YAKUTSK ANN HUM_N 99.6% CONDNS DP=>MCDB,9.4368957093E-014,4.6002488436E-015,Pass,Pass,1.4003079027E-003,1.1814314434E-002,Pass,Pass
 Warmup Convergence Information,THERMAL ZONE 6,SizingPeriod: YAKUTSK ANN HUM_N 99.6% CONDNS DP=>MCDB,6.7624918011E-014,6.1593767367E-014,Pass,Pass,2.1650017625E-003,1.8298056633E-002,Pass,Pass
 Warmup Convergence Information,THERMAL ZONE 7,SizingPeriod: YAKUTSK ANN HUM_N 99.6% CONDNS DP=>MCDB,9.3431435428E-014,5.6448969430E-014,Pass,Pass,2.1701241652E-003,1.8341609494E-002,Pass,Pass
 Warmup Convergence Information,THERMAL ZONE 8,SizingPeriod: YAKUTSK ANN HUM_N 99.6% CONDNS DP=>MCDB,8.4228920135E-014,8.5383777923E-015,Pass,Pass,2.8331180000E-003,2.3995313002E-002,Pass,Pass
 Warmup Convergence Information,THERMAL ZONE 9,SizingPeriod: YAKUTSK ANN HUM_N 99.6% CONDNS DP=>MCDB,5.9483282497E-014,5.9174361325E-015,Pass,Pass,2.4950171849E-003,2.1107854137E-002,Pass,Pass
Environment,RUN PERIOD 1,WeatherFileRunPeriod,01/01,12/31,Sunday,365,Use RunPeriod Specified Day,No,No,No,Yes,Yes
Environment:Daylight Saving,No,RunPeriod Object
Environment:WarmupDays,  6
 Warmup Convergence Information,THERMAL ZONE 1,RunPeriod: RUN PERIOD 1,3.8352037595E-014,3.0130807052E-014,Pass,Pass,4.7545366379E-003,6.9516777944E-003,Pass,Pass
 Warmup Convergence Information,THERMAL ZONE 10,RunPeriod: RUN PERIOD 1,2.5461114698E-014,2.0137485714E-014,Pass,Pass,2.9717050748E-003,4.7792101986E-003,Pass,Pass
 Warmup Convergence Information,THERMAL ZONE 11,RunPeriod: RUN PERIOD 1,3.5551808411E-014,2.9617037197E-014,Pass,Pass,4.6749731120E-003,6.9970925683E-003,Pass,Pass
 Warmup Convergence Information,THERMAL ZONE 12,RunPeriod: RUN PERIOD 1,5.5868889761E-014,4.6368447685E-014,Pass,Pass,3.1593247232E-003,4.7378706802E-003,Pass,Pass
 Warmup Convergence Information,THERMAL ZONE 13,RunPeriod: RUN PERIOD 1,3.6328964528E-014,2.6349151625E-014,Pass,Pass,3.6403593732E-003,4.9934723878E-003,Pass,Pass
 Warmup Convergence Information,THERMAL ZONE 14,RunPeriod: RUN PERIOD 1,9.1821521216E-003,1.1980354381E-002,Pass,Pass,3.7245019121E-002,9.6230992596E-002,Pass,Pass
 Warmup Convergence Information,THERMAL ZONE 15,RunPeriod: RUN PERIOD 1,4.7394187340E-014,3.3342299355E-014,Pass,Pass,3.7151778841E-003,5.3288267102E-003,Pass,Pass
 Warmup Convergence Information,THERMAL ZONE 16,RunPeriod: RUN PERIOD 1,2.5325420773E-014,1.8127142192E-014,Pass,Pass,5.2016975732E-003,7.5871975830E-003,Pass,Pass
 Warmup Convergence Information,THERMAL ZONE 2,RunPeriod: RUN PERIOD 1,3.0469454120E-015,2.3929884367E-015,Pass,Pass,2.2192633574E-002,2.6768395195E-002,Pass,Pass
 Warmup Convergence Information,THERMAL ZONE 3,RunPeriod: RUN PERIOD 1,1.2520848555E-014,1.1405650114E-014,Pass,Pass,1.8378614630E-002,2.6768930310E-002,Pass,Pass
 Warmup Convergence Information,THERMAL ZONE 4,RunPeriod: RUN PERIOD 1,2.5411771453E-014,1.4993121962E-014,Pass,Pass,3.6716073797E-003,5.7506869662E-003,Pass,Pass
 Warmup Convergence Information,THERMAL ZONE 5,RunPeriod: RUN PERIOD 1,2.2352490229E-014,1.7151658207E-014,Pass,Pass,3.5337314787E-003,5.6279799251E-003,Pass,Pass
 Warmup Convergence Information,THERMAL ZONE 6,RunPeriod: RUN PERIOD 1,1.0966536321E-014,9.3770262711E-015,Pass,Pass,1.2273821929E-002,1.8767055095E-002,Pass,Pass
 Warmup Convergence Information,THERMAL ZONE 7,RunPeriod: RUN PERIOD 1,3.2887273152E-014,2.3483121378E-014,Pass,Pass,4.1122888995E-003,6.6298162180E-003,Pass,Pass
 Warmup Convergence Information,THERMAL ZONE 8,RunPeriod: RUN PERIOD 1,8.3883517416E-015,6.9698098485E-015,Pass,Pass,1.0534269677E-002,1.3847728736E-002,Pass,Pass
 Warmup Convergence Information,THERMAL ZONE 9,RunPeriod: RUN PERIOD 1,4.5050260785E-003,4.2425387387E-003,Pass,Pass,0.0000000000,0.0000000000,Pass,Pass
! <Program Control Information:Threads/Parallel Sims>, Threading Supported,Maximum Number of Threads, Env Set Threads (OMP_NUM_THREADS), EP Env Set Threads (EP_OMP_NUM_THREADS), IDF Set Threads, Number of Threads Used (Interior Radiant Exchange), Number Nominal Surfaces, Number Parallel Sims
Program Control:Threads/Parallel Sims, No,1, N/A, N/A, N/A, N/A, N/A, N/A
End of Data
