{
   "completed_at" : "20180214T152633Z",
   "completed_status" : "Success",
   "created_at" : "20180209T142505Z",
   "current_step" : 0,
   "eplusout_err" : "Program Version,EnergyPlus, Version 8.8.0-7c3bbe4830, YMD=2018.02.14 16:25,IDD_Version 8.8.0\n   ************* Beginning Zone Sizing Calculations\n   ** Warning ** SetUpDesignDay: Entered DesignDay Barometric Pressure=77212 differs by more than 10% from Standard Barometric Pressure=100499.\n   **   ~~~   ** ...occurs in DesignDay=MEXICO CITY ANN CLG .4% CONDNS DB=>MWB, Standard Pressure (based on elevation) will be used.\n   ** Warning ** ProcessScheduleInput: Schedule:Constant=\"ALWAYS_ON\", Blank Schedule Type Limits Name input -- will not be validated.\n   ** Warning ** ProcessScheduleInput: Schedule:Constant=\"ALWAYS ON DISCRETE\", Blank Schedule Type Limits Name input -- will not be validated.\n   ** Warning ** ProcessScheduleInput: Schedule:Constant=\"ALWAYS OFF DISCRETE\", Blank Schedule Type Limits Name input -- will not be validated.\n   ** Warning ** ProcessScheduleInput: Schedule:Constant=\"ALWAYS ON CONTINUOUS\", Blank Schedule Type Limits Name input -- will not be validated.\n   ** Warning ** GetHTSurfaceData: Surfaces with interface to Ground found but no \"Ground Temperatures\" were input.\n   **   ~~~   ** Found first in surface=SURFACE 1\n   **   ~~~   ** Defaults, constant throughout the year of (18.0) will be used.\n   ** Warning ** CheckUsedConstructions: There are 25 nominally unused constructions in input.\n   **   ~~~   ** For explicit details on each unused construction, use Output:Diagnostics,DisplayExtraWarnings;\n   ** Warning ** DetermineShadowingCombinations: There are 1 surfaces which are receiving surfaces and are non-convex.\n   **   ~~~   ** ...Shadowing values may be inaccurate. Check .shd report file for more surface shading details\n   **   ~~~   ** ...Add Output:Diagnostics,DisplayExtraWarnings; to see individual warnings for each surface.\n   ** Warning ** SetUpDesignDay: Entered DesignDay Barometric Pressure=77212 differs by more than 10% from Standard Barometric Pressure=100499.\n   **   ~~~   ** ...occurs in DesignDay=MEXICO CITY ANN CLG .4% CONDNS DP=>MDB, Standard Pressure (based on elevation) will be used.\n   ** Warning ** SetUpDesignDay: Entered DesignDay Barometric Pressure=77212 differs by more than 10% from Standard Barometric Pressure=100499.\n   **   ~~~   ** ...occurs in DesignDay=MEXICO CITY ANN CLG .4% CONDNS ENTH=>MDB, Standard Pressure (based on elevation) will be used.\n   ** Warning ** SetUpDesignDay: Entered DesignDay Barometric Pressure=77212 differs by more than 10% from Standard Barometric Pressure=100499.\n   **   ~~~   ** ...occurs in DesignDay=MEXICO CITY ANN CLG .4% CONDNS WB=>MDB, Standard Pressure (based on elevation) will be used.\n   ** Warning ** SetUpDesignDay: Entered DesignDay Barometric Pressure=77212 differs by more than 10% from Standard Barometric Pressure=100499.\n   **   ~~~   ** ...occurs in DesignDay=MEXICO CITY ANN HTG 99.6% CONDNS DB, Standard Pressure (based on elevation) will be used.\n   ** Warning ** SetUpDesignDay: Entered DesignDay Barometric Pressure=77212 differs by more than 10% from Standard Barometric Pressure=100499.\n   **   ~~~   ** ...occurs in DesignDay=MEXICO CITY ANN HTG WIND 99.6% CONDNS WS=>MCDB, Standard Pressure (based on elevation) will be used.\n   ** Warning ** SetUpDesignDay: Entered DesignDay Barometric Pressure=77212 differs by more than 10% from Standard Barometric Pressure=100499.\n   **   ~~~   ** ...occurs in DesignDay=MEXICO CITY ANN HUM_N 99.6% CONDNS DP=>MCDB, Standard Pressure (based on elevation) will be used.\n   ** Warning ** Output:Meter: invalid Key Name=\"GAS:FACILITY\" - not found.\n   ** Warning ** Output:Meter:MeterFileOnly: invalid Key Name=\"GAS:FACILITY\" - not found.\n   ** Warning ** Output:Meter:MeterFileOnly requested for \"Electricity:Facility\" (TimeStep), already on \"Output:Meter\". Will report to both eplusout.eso and eplusout.mtr\n   ************* Testing Individual Branch Integrity\n   ************* All Branches passed integrity testing\n   ************* Testing Individual Supply Air Path Integrity\n   ************* All Supply Air Paths passed integrity testing\n   ************* Testing Individual Return Air Path Integrity\n   ************* All Return Air Paths passed integrity testing\n   ************* No node connection errors were found.\n   ************* Beginning Simulation\n   ** Warning ** The resource referenced by LifeCycleCost:UsePriceEscalation= \"U.S. AVG  COMMERCIAL-ELECTRICITY\" has no energy cost. \n   **   ~~~   ** ... It is likely that the wrong resource is used. The resource should match the meter used in Utility:Tariff.\n   ** Warning ** The resource referenced by LifeCycleCost:UsePriceEscalation= \"U.S. AVG  COMMERCIAL-DISTILLATE OIL\" has no energy cost. \n   **   ~~~   ** ... It is likely that the wrong resource is used. The resource should match the meter used in Utility:Tariff.\n   ** Warning ** The resource referenced by LifeCycleCost:UsePriceEscalation= \"U.S. AVG  COMMERCIAL-RESIDUAL OIL\" has no energy cost. \n   **   ~~~   ** ... It is likely that the wrong resource is used. The resource should match the meter used in Utility:Tariff.\n   ** Warning ** The resource referenced by LifeCycleCost:UsePriceEscalation= \"U.S. AVG  COMMERCIAL-NATURAL GAS\" has no energy cost. \n   **   ~~~   ** ... It is likely that the wrong resource is used. The resource should match the meter used in Utility:Tariff.\n   ** Warning ** The resource referenced by LifeCycleCost:UsePriceEscalation= \"U.S. AVG  COMMERCIAL-COAL\" has no energy cost. \n   **   ~~~   ** ... It is likely that the wrong resource is used. The resource should match the meter used in Utility:Tariff.\n   ************* Simulation Error Summary *************\n   ************* There are 20 unused schedules in input.\n   ************* There are 20 unused week schedules in input.\n   ************* There are 82 unused day schedules in input.\n   ************* Use Output:Diagnostics,DisplayUnusedSchedules; to see them.\n   *************\n   ************* ===== Final Error Summary =====\n   ************* The following error categories occurred.  Consider correcting or noting.\n   ************* Nominally Unused Constructions\n   ************* ..The nominally unused constructions warning is provided to alert you to potential conditions that can cause\n   ************* ..extra time during simulation. Each construction is calculated by the algorithm indicated in the HeatBalanceAlgorithm\n   ************* ..object. You may remove the constructions indicated (when you use the DisplayExtraWarnings option).\n   *************\n   ************* EnergyPlus Warmup Error Summary. During Warmup: 0 Warning; 0 Severe Errors.\n   ************* EnergyPlus Sizing Error Summary. During Sizing: 13 Warning; 0 Severe Errors.\n   ************* EnergyPlus Completed Successfully-- 22 Warning; 0 Severe Errors; Elapsed Time=00hr 00min 38.65sec\n",
   "hash" : "06307951",
   "seed_file" : "../PIACENZA_Base_Case.osm",
   "started_at" : "20180214T152538Z",
   "steps" : [],
   "updated_at" : "20180214T152633Z",
   "weather_file" : "GHA_Accra.654720_SWERA.epw"
}
