Program Version,EnergyPlus, Version 8.5.0-c87e61b44b, YMD=2018.01.24 13:36,IDD_Version 8.5.0
   ** Warning ** IP: Note -- Some missing fields have been filled with defaults. See the audit output file for details.
   ************* Beginning Zone Sizing Calculations
   ** Warning ** SetUpDesignDay: Entered DesignDay Barometric Pressure=99726 differs by more than 10% from Standard Barometric Pressure=74233.
   **   ~~~   ** ...occurs in DesignDay=PIACENZA ANN CLG .4% CONDNS DB=>MWB, Standard Pressure (based on elevation) will be used.
   ** Warning ** ProcessScheduleInput: Schedule:Constant="ALWAYS_ON", Blank Schedule Type Limits Name input -- will not be validated.
   ** Warning ** ProcessScheduleInput: Schedule:Constant="ALWAYS ON DISCRETE", Blank Schedule Type Limits Name input -- will not be validated.
   ** Warning ** ProcessScheduleInput: Schedule:Constant="ALWAYS OFF DISCRETE", Blank Schedule Type Limits Name input -- will not be validated.
   ** Warning ** ProcessScheduleInput: Schedule:Constant="ALWAYS ON CONTINUOUS", Blank Schedule Type Limits Name input -- will not be validated.
   ** Warning ** GetHTSurfaceData: Surfaces with interface to Ground found but no "Ground Temperatures" were input.
   **   ~~~   ** Found first in surface=SURFACE 1
   **   ~~~   ** Defaults, constant throughout the year of (18.0) will be used.
   ** Warning ** CheckUsedConstructions: There are 5 nominally unused constructions in input.
   **   ~~~   ** For explicit details on each unused construction, use Output:Diagnostics,DisplayExtraWarnings;
   ** Warning ** SetUpDesignDay: Entered DesignDay Barometric Pressure=99726 differs by more than 10% from Standard Barometric Pressure=74233.
   **   ~~~   ** ...occurs in DesignDay=PIACENZA ANN CLG .4% CONDNS DP=>MDB, Standard Pressure (based on elevation) will be used.
   ** Warning ** SetUpDesignDay: Entered DesignDay Barometric Pressure=99726 differs by more than 10% from Standard Barometric Pressure=74233.
   **   ~~~   ** ...occurs in DesignDay=PIACENZA ANN CLG .4% CONDNS ENTH=>MDB, Standard Pressure (based on elevation) will be used.
   ** Warning ** SetUpDesignDay: Entered DesignDay Barometric Pressure=99726 differs by more than 10% from Standard Barometric Pressure=74233.
   **   ~~~   ** ...occurs in DesignDay=PIACENZA ANN CLG .4% CONDNS WB=>MDB, Standard Pressure (based on elevation) will be used.
   ** Warning ** SetUpDesignDay: Entered DesignDay Barometric Pressure=99726 differs by more than 10% from Standard Barometric Pressure=74233.
   **   ~~~   ** ...occurs in DesignDay=PIACENZA ANN HTG 99.6% CONDNS DB, Standard Pressure (based on elevation) will be used.
   ** Warning ** SetUpDesignDay: Entered DesignDay Barometric Pressure=99726 differs by more than 10% from Standard Barometric Pressure=74233.
   **   ~~~   ** ...occurs in DesignDay=PIACENZA ANN HTG WIND 99.6% CONDNS WS=>MCDB, Standard Pressure (based on elevation) will be used.
   ** Warning ** SetUpDesignDay: Entered DesignDay Barometric Pressure=99726 differs by more than 10% from Standard Barometric Pressure=74233.
   **   ~~~   ** ...occurs in DesignDay=PIACENZA ANN HUM_N 99.6% CONDNS DP=>MCDB, Standard Pressure (based on elevation) will be used.
   ** Warning ** Output:Meter: invalid Name="GAS:FACILITY" - not found.
   ************* Testing Individual Branch Integrity
   ************* All Branches passed integrity testing
   ************* Testing Individual Supply Air Path Integrity
   ************* All Supply Air Paths passed integrity testing
   ************* Testing Individual Return Air Path Integrity
   ************* All Return Air Paths passed integrity testing
   ************* No node connection errors were found.
   ************* Beginning Simulation
   ************* Simulation Error Summary *************
   ************* There are 7 unused schedules in input.
   ************* There are 7 unused week schedules in input.
   ************* There are 23 unused day schedules in input.
   ************* Use Output:Diagnostics,DisplayUnusedSchedules; to see them.
   *************
   ************* ===== Final Error Summary =====
   ************* The following error categories occurred.  Consider correcting or noting.
   ************* Nominally Unused Constructions
   ************* ..The nominally unused constructions warning is provided to alert you to potential conditions that can cause
   ************* ..extra time during simulation. Each construction is calculated by the algorithm indicated in the HeatBalanceAlgorithm
   ************* ..object. You may remove the constructions indicated (when you use the DisplayExtraWarnings option).
   *************
   ************* EnergyPlus Warmup Error Summary. During Warmup: 0 Warning; 0 Severe Errors.
   ************* EnergyPlus Sizing Error Summary. During Sizing: 13 Warning; 0 Severe Errors.
   ************* EnergyPlus Completed Successfully-- 15 Warning; 0 Severe Errors; Elapsed Time=00hr 00min 59.59sec
