Program Version,EnergyPlus, Version 8.8.0-7c3bbe4830, YMD=2018.02.14 15:47,IDD_Version 8.8.0
   ************* Beginning Zone Sizing Calculations
   ** Warning ** SetUpDesignDay: Entered DesignDay Barometric Pressure=77212 differs by more than 10% from Standard Barometric Pressure=99726.
   **   ~~~   ** ...occurs in DesignDay=MEXICO CITY ANN CLG .4% CONDNS DB=>MWB, Standard Pressure (based on elevation) will be used.
   ** Warning ** ProcessScheduleInput: Schedule:Constant="ALWAYS_ON", Blank Schedule Type Limits Name input -- will not be validated.
   ** Warning ** ProcessScheduleInput: Schedule:Constant="ALWAYS ON DISCRETE", Blank Schedule Type Limits Name input -- will not be validated.
   ** Warning ** ProcessScheduleInput: Schedule:Constant="ALWAYS OFF DISCRETE", Blank Schedule Type Limits Name input -- will not be validated.
   ** Warning ** ProcessScheduleInput: Schedule:Constant="ALWAYS ON CONTINUOUS", Blank Schedule Type Limits Name input -- will not be validated.
   ** Warning ** GetHTSurfaceData: Surfaces with interface to Ground found but no "Ground Temperatures" were input.
   **   ~~~   ** Found first in surface=SURFACE 1
   **   ~~~   ** Defaults, constant throughout the year of (18.0) will be used.
   ** Warning ** CheckUsedConstructions: There are 25 nominally unused constructions in input.
   **   ~~~   ** For explicit details on each unused construction, use Output:Diagnostics,DisplayExtraWarnings;
   ** Warning ** DetermineShadowingCombinations: There are 1 surfaces which are receiving surfaces and are non-convex.
   **   ~~~   ** ...Shadowing values may be inaccurate. Check .shd report file for more surface shading details
   **   ~~~   ** ...Add Output:Diagnostics,DisplayExtraWarnings; to see individual warnings for each surface.
   ** Warning ** SetUpDesignDay: Entered DesignDay Barometric Pressure=77212 differs by more than 10% from Standard Barometric Pressure=99726.
   **   ~~~   ** ...occurs in DesignDay=MEXICO CITY ANN CLG .4% CONDNS DP=>MDB, Standard Pressure (based on elevation) will be used.
   ** Warning ** SetUpDesignDay: Entered DesignDay Barometric Pressure=77212 differs by more than 10% from Standard Barometric Pressure=99726.
   **   ~~~   ** ...occurs in DesignDay=MEXICO CITY ANN CLG .4% CONDNS ENTH=>MDB, Standard Pressure (based on elevation) will be used.
   ** Warning ** SetUpDesignDay: Entered DesignDay Barometric Pressure=77212 differs by more than 10% from Standard Barometric Pressure=99726.
   **   ~~~   ** ...occurs in DesignDay=MEXICO CITY ANN CLG .4% CONDNS WB=>MDB, Standard Pressure (based on elevation) will be used.
   ** Warning ** SetUpDesignDay: Entered DesignDay Barometric Pressure=77212 differs by more than 10% from Standard Barometric Pressure=99726.
   **   ~~~   ** ...occurs in DesignDay=MEXICO CITY ANN HTG 99.6% CONDNS DB, Standard Pressure (based on elevation) will be used.
   ** Warning ** SetUpDesignDay: Entered DesignDay Barometric Pressure=77212 differs by more than 10% from Standard Barometric Pressure=99726.
   **   ~~~   ** ...occurs in DesignDay=MEXICO CITY ANN HTG WIND 99.6% CONDNS WS=>MCDB, Standard Pressure (based on elevation) will be used.
   ** Warning ** SetUpDesignDay: Entered DesignDay Barometric Pressure=77212 differs by more than 10% from Standard Barometric Pressure=99726.
   **   ~~~   ** ...occurs in DesignDay=MEXICO CITY ANN HUM_N 99.6% CONDNS DP=>MCDB, Standard Pressure (based on elevation) will be used.
   ** Warning ** Output:Meter: invalid Key Name="GAS:FACILITY" - not found.
   ** Warning ** Output:Meter:MeterFileOnly: invalid Key Name="GAS:FACILITY" - not found.
   ** Warning ** Output:Meter:MeterFileOnly requested for "Electricity:Facility" (TimeStep), already on "Output:Meter". Will report to both eplusout.eso and eplusout.mtr
   ************* Testing Individual Branch Integrity
   ************* All Branches passed integrity testing
   ************* Testing Individual Supply Air Path Integrity
   ************* All Supply Air Paths passed integrity testing
   ************* Testing Individual Return Air Path Integrity
   ************* All Return Air Paths passed integrity testing
   ************* No node connection errors were found.
   ************* Beginning Simulation
   ** Warning ** The resource referenced by LifeCycleCost:UsePriceEscalation= "U.S. AVG  COMMERCIAL-ELECTRICITY" has no energy cost. 
   **   ~~~   ** ... It is likely that the wrong resource is used. The resource should match the meter used in Utility:Tariff.
   ** Warning ** The resource referenced by LifeCycleCost:UsePriceEscalation= "U.S. AVG  COMMERCIAL-DISTILLATE OIL" has no energy cost. 
   **   ~~~   ** ... It is likely that the wrong resource is used. The resource should match the meter used in Utility:Tariff.
   ** Warning ** The resource referenced by LifeCycleCost:UsePriceEscalation= "U.S. AVG  COMMERCIAL-RESIDUAL OIL" has no energy cost. 
   **   ~~~   ** ... It is likely that the wrong resource is used. The resource should match the meter used in Utility:Tariff.
   ** Warning ** The resource referenced by LifeCycleCost:UsePriceEscalation= "U.S. AVG  COMMERCIAL-NATURAL GAS" has no energy cost. 
   **   ~~~   ** ... It is likely that the wrong resource is used. The resource should match the meter used in Utility:Tariff.
   ** Warning ** The resource referenced by LifeCycleCost:UsePriceEscalation= "U.S. AVG  COMMERCIAL-COAL" has no energy cost. 
   **   ~~~   ** ... It is likely that the wrong resource is used. The resource should match the meter used in Utility:Tariff.
   ************* Simulation Error Summary *************
   ************* There are 20 unused schedules in input.
   ************* There are 20 unused week schedules in input.
   ************* There are 82 unused day schedules in input.
   ************* Use Output:Diagnostics,DisplayUnusedSchedules; to see them.
   *************
   ************* ===== Final Error Summary =====
   ************* The following error categories occurred.  Consider correcting or noting.
   ************* Nominally Unused Constructions
   ************* ..The nominally unused constructions warning is provided to alert you to potential conditions that can cause
   ************* ..extra time during simulation. Each construction is calculated by the algorithm indicated in the HeatBalanceAlgorithm
   ************* ..object. You may remove the constructions indicated (when you use the DisplayExtraWarnings option).
   *************
   ************* EnergyPlus Warmup Error Summary. During Warmup: 0 Warning; 0 Severe Errors.
   ************* EnergyPlus Sizing Error Summary. During Sizing: 13 Warning; 0 Severe Errors.
   ************* EnergyPlus Completed Successfully-- 22 Warning; 0 Severe Errors; Elapsed Time=00hr 00min 33.36sec
